version 2
run Manual-0-20211124-15:51:02-9752
attr configname Manual
attr datetime 20211124-15:51:02
attr experiment Manual
attr inifile omnetpp.ini
attr iterationvars ""
attr iterationvarsf ""
attr measurement ""
attr network GPSRNetworkManual
attr processid 9752
attr repetition 0
attr replication #0
attr resultdir results
attr runnumber 0
attr seedset 0
param **.host*.mobility.typename "\"StationaryMobility\""
param *.host*.numApps 1
param *.host*.app[0].typename "\"PingApp\""
param *.host0.app[0].destAddr "\"host1\""
param *.host*.app[0].destAddr "\"\""
param *.host*.app[0].startTime uniform(1s,5s)
param *.host*.app[0].printPing true
param *.numHosts 20
param **.mobility.constraintAreaMinZ 0m
param **.mobility.constraintAreaMaxZ 0m
param **.mobility.constraintAreaMinX 0m
param **.mobility.constraintAreaMinY 0m
param **.mobility.constraintAreaMaxX 1000m
param **.mobility.constraintAreaMaxY 1000m
param **.wlan[*].bitrate 2Mbps
param **.wlan[*].mac.dcf.channelAccess.cwMin 7
param **.wlan[*].radio.transmitter.power 2mW

vector 0 GPSRNetworkManual.host0.wlan[0].radio radioMode:vector ETV
attr interpolationmode sample-hold
attr source radioModeChanged
attr title "Radio mode, vector"
vector 1 GPSRNetworkManual.host0.wlan[0].radio radioChannel:vector ETV
attr interpolationmode sample-hold
attr source radioChannelChanged
attr title "Radio channel, vector"
vector 2 GPSRNetworkManual.host1.wlan[0].radio radioMode:vector ETV
attr interpolationmode sample-hold
attr source radioModeChanged
attr title "Radio mode, vector"
vector 3 GPSRNetworkManual.host1.wlan[0].radio radioChannel:vector ETV
attr interpolationmode sample-hold
attr source radioChannelChanged
attr title "Radio channel, vector"
vector 4 GPSRNetworkManual.host2.wlan[0].radio radioMode:vector ETV
attr interpolationmode sample-hold
attr source radioModeChanged
attr title "Radio mode, vector"
vector 5 GPSRNetworkManual.host2.wlan[0].radio radioChannel:vector ETV
attr interpolationmode sample-hold
attr source radioChannelChanged
attr title "Radio channel, vector"
vector 6 GPSRNetworkManual.host3.wlan[0].radio radioMode:vector ETV
attr interpolationmode sample-hold
attr source radioModeChanged
attr title "Radio mode, vector"
vector 7 GPSRNetworkManual.host3.wlan[0].radio radioChannel:vector ETV
attr interpolationmode sample-hold
attr source radioChannelChanged
attr title "Radio channel, vector"
vector 8 GPSRNetworkManual.host4.wlan[0].radio radioMode:vector ETV
attr interpolationmode sample-hold
attr source radioModeChanged
attr title "Radio mode, vector"
vector 9 GPSRNetworkManual.host4.wlan[0].radio radioChannel:vector ETV
attr interpolationmode sample-hold
attr source radioChannelChanged
attr title "Radio channel, vector"
vector 10 GPSRNetworkManual.host5.wlan[0].radio radioMode:vector ETV
attr interpolationmode sample-hold
attr source radioModeChanged
attr title "Radio mode, vector"
vector 11 GPSRNetworkManual.host5.wlan[0].radio radioChannel:vector ETV
attr interpolationmode sample-hold
attr source radioChannelChanged
attr title "Radio channel, vector"
vector 12 GPSRNetworkManual.host6.wlan[0].radio radioMode:vector ETV
attr interpolationmode sample-hold
attr source radioModeChanged
attr title "Radio mode, vector"
vector 13 GPSRNetworkManual.host6.wlan[0].radio radioChannel:vector ETV
attr interpolationmode sample-hold
attr source radioChannelChanged
attr title "Radio channel, vector"
vector 14 GPSRNetworkManual.host7.wlan[0].radio radioMode:vector ETV
attr interpolationmode sample-hold
attr source radioModeChanged
attr title "Radio mode, vector"
vector 15 GPSRNetworkManual.host7.wlan[0].radio radioChannel:vector ETV
attr interpolationmode sample-hold
attr source radioChannelChanged
attr title "Radio channel, vector"
vector 16 GPSRNetworkManual.host8.wlan[0].radio radioMode:vector ETV
attr interpolationmode sample-hold
attr source radioModeChanged
attr title "Radio mode, vector"
vector 17 GPSRNetworkManual.host8.wlan[0].radio radioChannel:vector ETV
attr interpolationmode sample-hold
attr source radioChannelChanged
attr title "Radio channel, vector"
vector 18 GPSRNetworkManual.host9.wlan[0].radio radioMode:vector ETV
attr interpolationmode sample-hold
attr source radioModeChanged
attr title "Radio mode, vector"
vector 19 GPSRNetworkManual.host9.wlan[0].radio radioChannel:vector ETV
attr interpolationmode sample-hold
attr source radioChannelChanged
attr title "Radio channel, vector"
vector 20 GPSRNetworkManual.host10.wlan[0].radio radioMode:vector ETV
attr interpolationmode sample-hold
attr source radioModeChanged
attr title "Radio mode, vector"
vector 21 GPSRNetworkManual.host10.wlan[0].radio radioChannel:vector ETV
attr interpolationmode sample-hold
attr source radioChannelChanged
attr title "Radio channel, vector"
vector 22 GPSRNetworkManual.host0.wlan[0].radio receptionState:vector ETV
attr interpolationmode sample-hold
attr source receptionStateChanged
attr title "Radio reception state, vector"
vector 23 GPSRNetworkManual.host1.wlan[0].radio receptionState:vector ETV
attr interpolationmode sample-hold
attr source receptionStateChanged
attr title "Radio reception state, vector"
vector 24 GPSRNetworkManual.host2.wlan[0].radio receptionState:vector ETV
attr interpolationmode sample-hold
attr source receptionStateChanged
attr title "Radio reception state, vector"
vector 25 GPSRNetworkManual.host3.wlan[0].radio receptionState:vector ETV
attr interpolationmode sample-hold
attr source receptionStateChanged
attr title "Radio reception state, vector"
vector 26 GPSRNetworkManual.host4.wlan[0].radio receptionState:vector ETV
attr interpolationmode sample-hold
attr source receptionStateChanged
attr title "Radio reception state, vector"
vector 27 GPSRNetworkManual.host5.wlan[0].radio receptionState:vector ETV
attr interpolationmode sample-hold
attr source receptionStateChanged
attr title "Radio reception state, vector"
vector 28 GPSRNetworkManual.host6.wlan[0].radio receptionState:vector ETV
attr interpolationmode sample-hold
attr source receptionStateChanged
attr title "Radio reception state, vector"
vector 29 GPSRNetworkManual.host7.wlan[0].radio receptionState:vector ETV
attr interpolationmode sample-hold
attr source receptionStateChanged
attr title "Radio reception state, vector"
vector 30 GPSRNetworkManual.host8.wlan[0].radio receptionState:vector ETV
attr interpolationmode sample-hold
attr source receptionStateChanged
attr title "Radio reception state, vector"
vector 31 GPSRNetworkManual.host9.wlan[0].radio receptionState:vector ETV
attr interpolationmode sample-hold
attr source receptionStateChanged
attr title "Radio reception state, vector"
vector 32 GPSRNetworkManual.host10.wlan[0].radio receptionState:vector ETV
attr interpolationmode sample-hold
attr source receptionStateChanged
attr title "Radio reception state, vector"
vector 33 GPSRNetworkManual.host0.wlan[0].mac.dcf.recoveryProcedure contentionWindowChanged:vector ETV
attr interpolationmode sample-hold
attr title "contention window, vector"
vector 34 GPSRNetworkManual.host1.wlan[0].mac.dcf.recoveryProcedure contentionWindowChanged:vector ETV
attr interpolationmode sample-hold
attr title "contention window, vector"
vector 35 GPSRNetworkManual.host2.wlan[0].mac.dcf.recoveryProcedure contentionWindowChanged:vector ETV
attr interpolationmode sample-hold
attr title "contention window, vector"
vector 36 GPSRNetworkManual.host3.wlan[0].mac.dcf.recoveryProcedure contentionWindowChanged:vector ETV
attr interpolationmode sample-hold
attr title "contention window, vector"
vector 37 GPSRNetworkManual.host4.wlan[0].mac.dcf.recoveryProcedure contentionWindowChanged:vector ETV
attr interpolationmode sample-hold
attr title "contention window, vector"
vector 38 GPSRNetworkManual.host5.wlan[0].mac.dcf.recoveryProcedure contentionWindowChanged:vector ETV
attr interpolationmode sample-hold
attr title "contention window, vector"
vector 39 GPSRNetworkManual.host6.wlan[0].mac.dcf.recoveryProcedure contentionWindowChanged:vector ETV
attr interpolationmode sample-hold
attr title "contention window, vector"
vector 40 GPSRNetworkManual.host7.wlan[0].mac.dcf.recoveryProcedure contentionWindowChanged:vector ETV
attr interpolationmode sample-hold
attr title "contention window, vector"
vector 41 GPSRNetworkManual.host8.wlan[0].mac.dcf.recoveryProcedure contentionWindowChanged:vector ETV
attr interpolationmode sample-hold
attr title "contention window, vector"
vector 42 GPSRNetworkManual.host9.wlan[0].mac.dcf.recoveryProcedure contentionWindowChanged:vector ETV
attr interpolationmode sample-hold
attr title "contention window, vector"
vector 43 GPSRNetworkManual.host10.wlan[0].mac.dcf.recoveryProcedure contentionWindowChanged:vector ETV
attr interpolationmode sample-hold
attr title "contention window, vector"
vector 44 GPSRNetworkManual.host0.app[0] pingTxSeq:vector ETV
attr interpolationmode none
attr title "ping tx seq, vector"
vector 45 GPSRNetworkManual.host4.wlan[0].mac packetReceivedFromUpper:vector(packetBytes) ETV
attr interpolationmode none
attr title "packets received from upper layer, vector(packetBytes)"
vector 46 GPSRNetworkManual.host4.wlan[0].mac.dcf.channelAccess.pendingQueue packetPushed:vector(packetBytes) ETV
attr interpolationmode none
attr title "packet pushed, vector(packetBytes)"
vector 47 GPSRNetworkManual.host4.wlan[0].mac.dcf.channelAccess.pendingQueue queueLength:vector ETV
attr interpolationmode sample-hold
attr source "count(packetPushed) - count(packetPopped) - count(packetRemoved) - count(packetDropped)"
attr title "queue length, vector"
vector 48 GPSRNetworkManual.host4.wlan[0].mac.dcf.channelAccess.contention backoffPeriodGenerated:vector ETV
attr interpolationmode none
attr title "backoff periods, vector"
vector 49 GPSRNetworkManual.host4.wlan[0].mac.dcf.channelAccess.contention backoffActive:vector ETV
attr interpolationmode sample-hold
attr source count(backoffStarted)-count(backoffStopped)
attr title "backoff active, vector"
vector 50 GPSRNetworkManual.host4.wlan[0].mac.dcf.channelAccess.pendingQueue packetPopped:vector(packetBytes) ETV
attr interpolationmode none
attr title "packet popped, vector(packetBytes)"
vector 51 GPSRNetworkManual.host4.wlan[0].mac.dcf.channelAccess.pendingQueue queueingTime:vector ETV
attr interpolationmode none
attr source queueingTime(packetPopped)
attr title "queueing times, vector"
attr unit s
vector 52 GPSRNetworkManual.host4.wlan[0].mac.dcf.channelAccess.inProgressFrames queueLength:vector ETV
attr interpolationmode sample-hold
attr source "count(packetEnqueued) - count(packetDequeued)"
attr title "queue length, vector"
vector 53 GPSRNetworkManual.host4.wlan[0].mac.dcf datarateSelected:vector ETV
attr interpolationmode none
attr title "datarates selected, vector"
vector 54 GPSRNetworkManual.host4.wlan[0].mac packetSentToLower:vector(packetBytes) ETV
attr interpolationmode none
attr title "packets sent to lower layer, vector(packetBytes)"
vector 55 GPSRNetworkManual.host4.wlan[0].mac.dcf frameSequenceActive:vector ETV
attr interpolationmode sample-hold
attr source count(frameSequenceStarted)-count(frameSequenceFinished)
attr title "frame sequence active, vector"
vector 56 GPSRNetworkManual.host4.wlan[0].radio transmissionState:vector ETV
attr interpolationmode sample-hold
attr source transmissionStateChanged
attr title "Radio transmission state, vector"
vector 57 GPSRNetworkManual.host4.wlan[0].mac.dcf packetSentToPeer:vector(packetBytes) ETV
attr interpolationmode none
attr title "packets sent, vector(packetBytes)"
vector 58 GPSRNetworkManual.host4.wlan[0].mac.dcf packetSentToPeerMulticast:vector(packetBytes) ETV
attr interpolationmode none
attr source ieee80211Multicast(packetSentToPeer)
attr title "packets sent: multicast, vector(packetBytes)"
vector 59 GPSRNetworkManual.host4.wlan[0].mac.dcf packetSentToPeerWithoutRetry:vector(packetBytes) ETV
attr interpolationmode none
attr source ieee80211NotRetry(packetSentToPeer)
attr title "packets sent: without retry, vector(packetBytes)"
vector 60 GPSRNetworkManual.host4.wlan[0].mac.dcf.channelAccess.inProgressFrames queueingTime:vector ETV
attr interpolationmode none
attr source queueingTime(packetDequeued)
attr title "queueing times, vector"
vector 61 GPSRNetworkManual.host5.wlan[0].mac packetReceivedFromLower:vector(packetBytes) ETV
attr interpolationmode none
attr title "packets received from lower layer, vector(packetBytes)"
vector 62 GPSRNetworkManual.host5.wlan[0].mac.dcf packetReceivedFromPeer:vector(packetBytes) ETV
attr interpolationmode none
attr title "packets received, vector(packetBytes)"
vector 63 GPSRNetworkManual.host5.wlan[0].mac.dcf packetReceivedFromPeerMulticast:vector(packetBytes) ETV
attr interpolationmode none
attr source ieee80211Multicast(packetReceivedFromPeer)
attr title "packets received: multicast, vector(packetBytes)"
vector 64 GPSRNetworkManual.host5.wlan[0].mac.dcf packetReceivedFromPeerWithoutRetry:vector(packetBytes) ETV
attr interpolationmode none
attr source ieee80211NotRetry(packetReceivedFromPeer)
attr title "packets received: without retry, vector(packetBytes)"
vector 65 GPSRNetworkManual.host5.wlan[0].mac packetSentToUpper:vector(packetBytes) ETV
attr interpolationmode none
attr title "packets sent to upper layer, vector(packetBytes)"
vector 66 GPSRNetworkManual.host3.wlan[0].mac packetReceivedFromLower:vector(packetBytes) ETV
attr interpolationmode none
attr title "packets received from lower layer, vector(packetBytes)"
vector 67 GPSRNetworkManual.host3.wlan[0].mac.dcf packetReceivedFromPeer:vector(packetBytes) ETV
attr interpolationmode none
attr title "packets received, vector(packetBytes)"
vector 68 GPSRNetworkManual.host3.wlan[0].mac.dcf packetReceivedFromPeerMulticast:vector(packetBytes) ETV
attr interpolationmode none
attr source ieee80211Multicast(packetReceivedFromPeer)
attr title "packets received: multicast, vector(packetBytes)"
vector 69 GPSRNetworkManual.host3.wlan[0].mac.dcf packetReceivedFromPeerWithoutRetry:vector(packetBytes) ETV
attr interpolationmode none
attr source ieee80211NotRetry(packetReceivedFromPeer)
attr title "packets received: without retry, vector(packetBytes)"
vector 70 GPSRNetworkManual.host3.wlan[0].mac packetSentToUpper:vector(packetBytes) ETV
attr interpolationmode none
attr title "packets sent to upper layer, vector(packetBytes)"
vector 71 GPSRNetworkManual.host6.wlan[0].mac packetReceivedFromLower:vector(packetBytes) ETV
attr interpolationmode none
attr title "packets received from lower layer, vector(packetBytes)"
vector 72 GPSRNetworkManual.host6.wlan[0].mac.dcf packetReceivedFromPeer:vector(packetBytes) ETV
attr interpolationmode none
attr title "packets received, vector(packetBytes)"
vector 73 GPSRNetworkManual.host6.wlan[0].mac.dcf packetReceivedFromPeerMulticast:vector(packetBytes) ETV
attr interpolationmode none
attr source ieee80211Multicast(packetReceivedFromPeer)
attr title "packets received: multicast, vector(packetBytes)"
vector 74 GPSRNetworkManual.host6.wlan[0].mac.dcf packetReceivedFromPeerWithoutRetry:vector(packetBytes) ETV
attr interpolationmode none
attr source ieee80211NotRetry(packetReceivedFromPeer)
attr title "packets received: without retry, vector(packetBytes)"
vector 75 GPSRNetworkManual.host6.wlan[0].mac packetSentToUpper:vector(packetBytes) ETV
attr interpolationmode none
attr title "packets sent to upper layer, vector(packetBytes)"
vector 76 GPSRNetworkManual.host2.wlan[0].mac packetReceivedFromLower:vector(packetBytes) ETV
attr interpolationmode none
attr title "packets received from lower layer, vector(packetBytes)"
vector 77 GPSRNetworkManual.host2.wlan[0].mac.dcf packetReceivedFromPeer:vector(packetBytes) ETV
attr interpolationmode none
attr title "packets received, vector(packetBytes)"
vector 78 GPSRNetworkManual.host2.wlan[0].mac.dcf packetReceivedFromPeerMulticast:vector(packetBytes) ETV
attr interpolationmode none
attr source ieee80211Multicast(packetReceivedFromPeer)
attr title "packets received: multicast, vector(packetBytes)"
vector 79 GPSRNetworkManual.host2.wlan[0].mac.dcf packetReceivedFromPeerWithoutRetry:vector(packetBytes) ETV
attr interpolationmode none
attr source ieee80211NotRetry(packetReceivedFromPeer)
attr title "packets received: without retry, vector(packetBytes)"
vector 80 GPSRNetworkManual.host2.wlan[0].mac packetSentToUpper:vector(packetBytes) ETV
attr interpolationmode none
attr title "packets sent to upper layer, vector(packetBytes)"
vector 81 GPSRNetworkManual.host6.wlan[0].mac packetReceivedFromUpper:vector(packetBytes) ETV
attr interpolationmode none
attr title "packets received from upper layer, vector(packetBytes)"
vector 82 GPSRNetworkManual.host6.wlan[0].mac.dcf.channelAccess.pendingQueue packetPushed:vector(packetBytes) ETV
attr interpolationmode none
attr title "packet pushed, vector(packetBytes)"
vector 83 GPSRNetworkManual.host6.wlan[0].mac.dcf.channelAccess.pendingQueue queueLength:vector ETV
attr interpolationmode sample-hold
attr source "count(packetPushed) - count(packetPopped) - count(packetRemoved) - count(packetDropped)"
attr title "queue length, vector"
vector 84 GPSRNetworkManual.host6.wlan[0].mac.dcf.channelAccess.contention backoffPeriodGenerated:vector ETV
attr interpolationmode none
attr title "backoff periods, vector"
vector 85 GPSRNetworkManual.host6.wlan[0].mac.dcf.channelAccess.contention backoffActive:vector ETV
attr interpolationmode sample-hold
attr source count(backoffStarted)-count(backoffStopped)
attr title "backoff active, vector"
vector 86 GPSRNetworkManual.host6.wlan[0].mac.dcf.channelAccess.pendingQueue packetPopped:vector(packetBytes) ETV
attr interpolationmode none
attr title "packet popped, vector(packetBytes)"
vector 87 GPSRNetworkManual.host6.wlan[0].mac.dcf.channelAccess.pendingQueue queueingTime:vector ETV
attr interpolationmode none
attr source queueingTime(packetPopped)
attr title "queueing times, vector"
attr unit s
vector 88 GPSRNetworkManual.host6.wlan[0].mac.dcf.channelAccess.inProgressFrames queueLength:vector ETV
attr interpolationmode sample-hold
attr source "count(packetEnqueued) - count(packetDequeued)"
attr title "queue length, vector"
vector 89 GPSRNetworkManual.host6.wlan[0].mac.dcf datarateSelected:vector ETV
attr interpolationmode none
attr title "datarates selected, vector"
vector 90 GPSRNetworkManual.host6.wlan[0].mac packetSentToLower:vector(packetBytes) ETV
attr interpolationmode none
attr title "packets sent to lower layer, vector(packetBytes)"
vector 91 GPSRNetworkManual.host6.wlan[0].mac.dcf frameSequenceActive:vector ETV
attr interpolationmode sample-hold
attr source count(frameSequenceStarted)-count(frameSequenceFinished)
attr title "frame sequence active, vector"
vector 92 GPSRNetworkManual.host6.wlan[0].radio transmissionState:vector ETV
attr interpolationmode sample-hold
attr source transmissionStateChanged
attr title "Radio transmission state, vector"
vector 93 GPSRNetworkManual.host6.wlan[0].mac.dcf packetSentToPeer:vector(packetBytes) ETV
attr interpolationmode none
attr title "packets sent, vector(packetBytes)"
vector 94 GPSRNetworkManual.host6.wlan[0].mac.dcf packetSentToPeerMulticast:vector(packetBytes) ETV
attr interpolationmode none
attr source ieee80211Multicast(packetSentToPeer)
attr title "packets sent: multicast, vector(packetBytes)"
vector 95 GPSRNetworkManual.host6.wlan[0].mac.dcf packetSentToPeerWithoutRetry:vector(packetBytes) ETV
attr interpolationmode none
attr source ieee80211NotRetry(packetSentToPeer)
attr title "packets sent: without retry, vector(packetBytes)"
vector 96 GPSRNetworkManual.host6.wlan[0].mac.dcf.channelAccess.inProgressFrames queueingTime:vector ETV
attr interpolationmode none
attr source queueingTime(packetDequeued)
attr title "queueing times, vector"
vector 97 GPSRNetworkManual.host4.wlan[0].mac packetReceivedFromLower:vector(packetBytes) ETV
attr interpolationmode none
attr title "packets received from lower layer, vector(packetBytes)"
vector 98 GPSRNetworkManual.host4.wlan[0].mac.dcf packetReceivedFromPeer:vector(packetBytes) ETV
attr interpolationmode none
attr title "packets received, vector(packetBytes)"
vector 99 GPSRNetworkManual.host4.wlan[0].mac.dcf packetReceivedFromPeerMulticast:vector(packetBytes) ETV
attr interpolationmode none
attr source ieee80211Multicast(packetReceivedFromPeer)
attr title "packets received: multicast, vector(packetBytes)"
vector 100 GPSRNetworkManual.host4.wlan[0].mac.dcf packetReceivedFromPeerWithoutRetry:vector(packetBytes) ETV
attr interpolationmode none
attr source ieee80211NotRetry(packetReceivedFromPeer)
attr title "packets received: without retry, vector(packetBytes)"
vector 101 GPSRNetworkManual.host4.wlan[0].mac packetSentToUpper:vector(packetBytes) ETV
attr interpolationmode none
attr title "packets sent to upper layer, vector(packetBytes)"
vector 102 GPSRNetworkManual.host10.wlan[0].mac packetReceivedFromLower:vector(packetBytes) ETV
attr interpolationmode none
attr title "packets received from lower layer, vector(packetBytes)"
vector 103 GPSRNetworkManual.host10.wlan[0].mac.dcf packetReceivedFromPeer:vector(packetBytes) ETV
attr interpolationmode none
attr title "packets received, vector(packetBytes)"
vector 104 GPSRNetworkManual.host10.wlan[0].mac.dcf packetReceivedFromPeerMulticast:vector(packetBytes) ETV
attr interpolationmode none
attr source ieee80211Multicast(packetReceivedFromPeer)
attr title "packets received: multicast, vector(packetBytes)"
vector 105 GPSRNetworkManual.host10.wlan[0].mac.dcf packetReceivedFromPeerWithoutRetry:vector(packetBytes) ETV
attr interpolationmode none
attr source ieee80211NotRetry(packetReceivedFromPeer)
attr title "packets received: without retry, vector(packetBytes)"
vector 106 GPSRNetworkManual.host10.wlan[0].mac packetSentToUpper:vector(packetBytes) ETV
attr interpolationmode none
attr title "packets sent to upper layer, vector(packetBytes)"
vector 107 GPSRNetworkManual.host2.wlan[0].mac packetReceivedFromUpper:vector(packetBytes) ETV
attr interpolationmode none
attr title "packets received from upper layer, vector(packetBytes)"
vector 108 GPSRNetworkManual.host2.wlan[0].mac.dcf.channelAccess.pendingQueue packetPushed:vector(packetBytes) ETV
attr interpolationmode none
attr title "packet pushed, vector(packetBytes)"
vector 109 GPSRNetworkManual.host2.wlan[0].mac.dcf.channelAccess.pendingQueue queueLength:vector ETV
attr interpolationmode sample-hold
attr source "count(packetPushed) - count(packetPopped) - count(packetRemoved) - count(packetDropped)"
attr title "queue length, vector"
vector 110 GPSRNetworkManual.host2.wlan[0].mac.dcf.channelAccess.contention backoffPeriodGenerated:vector ETV
attr interpolationmode none
attr title "backoff periods, vector"
vector 111 GPSRNetworkManual.host2.wlan[0].mac.dcf.channelAccess.contention backoffActive:vector ETV
attr interpolationmode sample-hold
attr source count(backoffStarted)-count(backoffStopped)
attr title "backoff active, vector"
vector 112 GPSRNetworkManual.host2.wlan[0].mac.dcf.channelAccess.pendingQueue packetPopped:vector(packetBytes) ETV
attr interpolationmode none
attr title "packet popped, vector(packetBytes)"
vector 113 GPSRNetworkManual.host2.wlan[0].mac.dcf.channelAccess.pendingQueue queueingTime:vector ETV
attr interpolationmode none
attr source queueingTime(packetPopped)
attr title "queueing times, vector"
attr unit s
vector 114 GPSRNetworkManual.host2.wlan[0].mac.dcf.channelAccess.inProgressFrames queueLength:vector ETV
attr interpolationmode sample-hold
attr source "count(packetEnqueued) - count(packetDequeued)"
attr title "queue length, vector"
vector 115 GPSRNetworkManual.host2.wlan[0].mac.dcf datarateSelected:vector ETV
attr interpolationmode none
attr title "datarates selected, vector"
vector 116 GPSRNetworkManual.host2.wlan[0].mac packetSentToLower:vector(packetBytes) ETV
attr interpolationmode none
attr title "packets sent to lower layer, vector(packetBytes)"
vector 117 GPSRNetworkManual.host2.wlan[0].mac.dcf frameSequenceActive:vector ETV
attr interpolationmode sample-hold
attr source count(frameSequenceStarted)-count(frameSequenceFinished)
attr title "frame sequence active, vector"
vector 118 GPSRNetworkManual.host2.wlan[0].radio transmissionState:vector ETV
attr interpolationmode sample-hold
attr source transmissionStateChanged
attr title "Radio transmission state, vector"
vector 119 GPSRNetworkManual.host2.wlan[0].mac.dcf packetSentToPeer:vector(packetBytes) ETV
attr interpolationmode none
attr title "packets sent, vector(packetBytes)"
vector 120 GPSRNetworkManual.host2.wlan[0].mac.dcf packetSentToPeerMulticast:vector(packetBytes) ETV
attr interpolationmode none
attr source ieee80211Multicast(packetSentToPeer)
attr title "packets sent: multicast, vector(packetBytes)"
vector 121 GPSRNetworkManual.host2.wlan[0].mac.dcf packetSentToPeerWithoutRetry:vector(packetBytes) ETV
attr interpolationmode none
attr source ieee80211NotRetry(packetSentToPeer)
attr title "packets sent: without retry, vector(packetBytes)"
vector 122 GPSRNetworkManual.host2.wlan[0].mac.dcf.channelAccess.inProgressFrames queueingTime:vector ETV
attr interpolationmode none
attr source queueingTime(packetDequeued)
attr title "queueing times, vector"
vector 123 GPSRNetworkManual.host0.wlan[0].mac packetReceivedFromLower:vector(packetBytes) ETV
attr interpolationmode none
attr title "packets received from lower layer, vector(packetBytes)"
vector 124 GPSRNetworkManual.host0.wlan[0].mac.dcf packetReceivedFromPeer:vector(packetBytes) ETV
attr interpolationmode none
attr title "packets received, vector(packetBytes)"
vector 125 GPSRNetworkManual.host0.wlan[0].mac.dcf packetReceivedFromPeerMulticast:vector(packetBytes) ETV
attr interpolationmode none
attr source ieee80211Multicast(packetReceivedFromPeer)
attr title "packets received: multicast, vector(packetBytes)"
vector 126 GPSRNetworkManual.host0.wlan[0].mac.dcf packetReceivedFromPeerWithoutRetry:vector(packetBytes) ETV
attr interpolationmode none
attr source ieee80211NotRetry(packetReceivedFromPeer)
attr title "packets received: without retry, vector(packetBytes)"
vector 127 GPSRNetworkManual.host0.wlan[0].mac packetSentToUpper:vector(packetBytes) ETV
attr interpolationmode none
attr title "packets sent to upper layer, vector(packetBytes)"
vector 128 GPSRNetworkManual.host7.wlan[0].mac packetReceivedFromLower:vector(packetBytes) ETV
attr interpolationmode none
attr title "packets received from lower layer, vector(packetBytes)"
vector 129 GPSRNetworkManual.host7.wlan[0].mac.dcf packetReceivedFromPeer:vector(packetBytes) ETV
attr interpolationmode none
attr title "packets received, vector(packetBytes)"
vector 130 GPSRNetworkManual.host7.wlan[0].mac.dcf packetReceivedFromPeerMulticast:vector(packetBytes) ETV
attr interpolationmode none
attr source ieee80211Multicast(packetReceivedFromPeer)
attr title "packets received: multicast, vector(packetBytes)"
vector 131 GPSRNetworkManual.host7.wlan[0].mac.dcf packetReceivedFromPeerWithoutRetry:vector(packetBytes) ETV
attr interpolationmode none
attr source ieee80211NotRetry(packetReceivedFromPeer)
attr title "packets received: without retry, vector(packetBytes)"
vector 132 GPSRNetworkManual.host7.wlan[0].mac packetSentToUpper:vector(packetBytes) ETV
attr interpolationmode none
attr title "packets sent to upper layer, vector(packetBytes)"
vector 133 GPSRNetworkManual.host0.ipv4.arp arpRequestSent:vector(packetBytes) ETV
attr source arpRequestSent
attr title "ARP request sent, vector(packetBytes)"
vector 134 GPSRNetworkManual.host0.wlan[0].mac packetReceivedFromUpper:vector(packetBytes) ETV
attr interpolationmode none
attr title "packets received from upper layer, vector(packetBytes)"
vector 135 GPSRNetworkManual.host0.wlan[0].mac.dcf.channelAccess.pendingQueue packetPushed:vector(packetBytes) ETV
attr interpolationmode none
attr title "packet pushed, vector(packetBytes)"
vector 136 GPSRNetworkManual.host0.wlan[0].mac.dcf.channelAccess.pendingQueue queueLength:vector ETV
attr interpolationmode sample-hold
attr source "count(packetPushed) - count(packetPopped) - count(packetRemoved) - count(packetDropped)"
attr title "queue length, vector"
vector 137 GPSRNetworkManual.host0.wlan[0].mac.dcf.channelAccess.contention backoffPeriodGenerated:vector ETV
attr interpolationmode none
attr title "backoff periods, vector"
vector 138 GPSRNetworkManual.host0.wlan[0].mac.dcf.channelAccess.contention backoffActive:vector ETV
attr interpolationmode sample-hold
attr source count(backoffStarted)-count(backoffStopped)
attr title "backoff active, vector"
vector 139 GPSRNetworkManual.host0.wlan[0].mac.dcf.channelAccess.pendingQueue packetPopped:vector(packetBytes) ETV
attr interpolationmode none
attr title "packet popped, vector(packetBytes)"
vector 140 GPSRNetworkManual.host0.wlan[0].mac.dcf.channelAccess.pendingQueue queueingTime:vector ETV
attr interpolationmode none
attr source queueingTime(packetPopped)
attr title "queueing times, vector"
attr unit s
vector 141 GPSRNetworkManual.host0.wlan[0].mac.dcf.channelAccess.inProgressFrames queueLength:vector ETV
attr interpolationmode sample-hold
attr source "count(packetEnqueued) - count(packetDequeued)"
attr title "queue length, vector"
vector 142 GPSRNetworkManual.host0.wlan[0].mac.dcf datarateSelected:vector ETV
attr interpolationmode none
attr title "datarates selected, vector"
vector 143 GPSRNetworkManual.host0.wlan[0].mac packetSentToLower:vector(packetBytes) ETV
attr interpolationmode none
attr title "packets sent to lower layer, vector(packetBytes)"
vector 144 GPSRNetworkManual.host0.wlan[0].mac.dcf frameSequenceActive:vector ETV
attr interpolationmode sample-hold
attr source count(frameSequenceStarted)-count(frameSequenceFinished)
attr title "frame sequence active, vector"
vector 145 GPSRNetworkManual.host0.wlan[0].radio transmissionState:vector ETV
attr interpolationmode sample-hold
attr source transmissionStateChanged
attr title "Radio transmission state, vector"
vector 146 GPSRNetworkManual.host0.wlan[0].mac.dcf packetSentToPeer:vector(packetBytes) ETV
attr interpolationmode none
attr title "packets sent, vector(packetBytes)"
vector 147 GPSRNetworkManual.host0.wlan[0].mac.dcf packetSentToPeerMulticast:vector(packetBytes) ETV
attr interpolationmode none
attr source ieee80211Multicast(packetSentToPeer)
attr title "packets sent: multicast, vector(packetBytes)"
vector 148 GPSRNetworkManual.host0.wlan[0].mac.dcf packetSentToPeerBroadcast:vector(packetBytes) ETV
attr interpolationmode none
attr source ieee80211Broadcast(packetSentToPeer)
attr title "packets sent: broadcast , vector(packetBytes)"
vector 149 GPSRNetworkManual.host0.wlan[0].mac.dcf packetSentToPeerWithoutRetry:vector(packetBytes) ETV
attr interpolationmode none
attr source ieee80211NotRetry(packetSentToPeer)
attr title "packets sent: without retry, vector(packetBytes)"
vector 150 GPSRNetworkManual.host0.wlan[0].mac.dcf.channelAccess.inProgressFrames queueingTime:vector ETV
attr interpolationmode none
attr source queueingTime(packetDequeued)
attr title "queueing times, vector"
vector 151 GPSRNetworkManual.host2.wlan[0].mac.dcf packetReceivedFromPeerBroadcast:vector(packetBytes) ETV
attr interpolationmode none
attr source ieee80211Broadcast(packetReceivedFromPeer)
attr title "packets received: broadcast, vector(packetBytes)"
vector 152 GPSRNetworkManual.host2.ipv4.arp arpReplySent:vector(packetBytes) ETV
attr source arpReplySent
attr title "ARP replies sent, vector(packetBytes)"
vector 153 GPSRNetworkManual.host2.wlan[0].mac.dcf packetSentToPeerUnicast:vector(packetBytes) ETV
attr interpolationmode none
attr source ieee80211Unicast(packetSentToPeer)
attr title "packets sent: unicast, vector(packetBytes)"
vector 154 GPSRNetworkManual.host2.wlan[0].mac.rx nav:vector ETV
attr interpolationmode linear
attr source navChanged
attr title "network allocation vector, vector"
vector 155 GPSRNetworkManual.host0.wlan[0].mac.dcf packetReceivedFromPeerUnicast:vector(packetBytes) ETV
attr interpolationmode none
attr source ieee80211Unicast(packetReceivedFromPeer)
attr title "packets received: unicast, vector(packetBytes)"
vector 156 GPSRNetworkManual.host3.wlan[0].mac.rx nav:vector ETV
attr interpolationmode linear
attr source navChanged
attr title "network allocation vector, vector"
vector 157 GPSRNetworkManual.host3.wlan[0].mac.dcf packetDrop:vector(packetBytes) ETV
attr interpolationmode none
attr source packetDropped
attr title "packet drops, vector(packetBytes)"
vector 158 GPSRNetworkManual.host3.wlan[0].mac.dcf packetDropNotAddressedToUs:vector(packetBytes) ETV
attr interpolationmode none
attr source packetDropReasonIsNotAddressedToUs(packetDropped)
attr title "packet drops: not addressed to us, vector(packetBytes)"
vector 159 GPSRNetworkManual.host3.wlan[0].mac packetDrop:vector(packetBytes) ETV
attr interpolationmode none
attr source packetDropped
attr title "packet drops, vector(packetBytes)"
vector 160 GPSRNetworkManual.host3.wlan[0].mac packetDropNotAddressedToUs:vector(packetBytes) ETV
attr interpolationmode none
attr source packetDropReasonIsNotAddressedToUs(packetDropped)
attr title "packet drops: not addressed to us, vector(packetBytes)"
vector 161 GPSRNetworkManual.host4.wlan[0].mac.rx nav:vector ETV
attr interpolationmode linear
attr source navChanged
attr title "network allocation vector, vector"
vector 162 GPSRNetworkManual.host4.wlan[0].mac.dcf packetDrop:vector(packetBytes) ETV
attr interpolationmode none
attr source packetDropped
attr title "packet drops, vector(packetBytes)"
vector 163 GPSRNetworkManual.host4.wlan[0].mac.dcf packetDropNotAddressedToUs:vector(packetBytes) ETV
attr interpolationmode none
attr source packetDropReasonIsNotAddressedToUs(packetDropped)
attr title "packet drops: not addressed to us, vector(packetBytes)"
vector 164 GPSRNetworkManual.host4.wlan[0].mac packetDrop:vector(packetBytes) ETV
attr interpolationmode none
attr source packetDropped
attr title "packet drops, vector(packetBytes)"
vector 165 GPSRNetworkManual.host4.wlan[0].mac packetDropNotAddressedToUs:vector(packetBytes) ETV
attr interpolationmode none
attr source packetDropReasonIsNotAddressedToUs(packetDropped)
attr title "packet drops: not addressed to us, vector(packetBytes)"
vector 166 GPSRNetworkManual.host7.wlan[0].mac.rx nav:vector ETV
attr interpolationmode linear
attr source navChanged
attr title "network allocation vector, vector"
vector 167 GPSRNetworkManual.host7.wlan[0].mac.dcf packetDrop:vector(packetBytes) ETV
attr interpolationmode none
attr source packetDropped
attr title "packet drops, vector(packetBytes)"
vector 168 GPSRNetworkManual.host7.wlan[0].mac.dcf packetDropNotAddressedToUs:vector(packetBytes) ETV
attr interpolationmode none
attr source packetDropReasonIsNotAddressedToUs(packetDropped)
attr title "packet drops: not addressed to us, vector(packetBytes)"
vector 169 GPSRNetworkManual.host7.wlan[0].mac packetDrop:vector(packetBytes) ETV
attr interpolationmode none
attr source packetDropped
attr title "packet drops, vector(packetBytes)"
vector 170 GPSRNetworkManual.host7.wlan[0].mac packetDropNotAddressedToUs:vector(packetBytes) ETV
attr interpolationmode none
attr source packetDropReasonIsNotAddressedToUs(packetDropped)
attr title "packet drops: not addressed to us, vector(packetBytes)"
vector 171 GPSRNetworkManual.host0.wlan[0].mac.dcf packetSentToPeerUnicast:vector(packetBytes) ETV
attr interpolationmode none
attr source ieee80211Unicast(packetSentToPeer)
attr title "packets sent: unicast, vector(packetBytes)"
vector 172 GPSRNetworkManual.host2.wlan[0].mac.dcf packetReceivedFromPeerUnicast:vector(packetBytes) ETV
attr interpolationmode none
attr source ieee80211Unicast(packetReceivedFromPeer)
attr title "packets received: unicast, vector(packetBytes)"
vector 173 GPSRNetworkManual.host0.wlan[0].mac.rx nav:vector ETV
attr interpolationmode linear
attr source navChanged
attr title "network allocation vector, vector"
vector 174 GPSRNetworkManual.host2.ipv4.arp arpRequestSent:vector(packetBytes) ETV
attr source arpRequestSent
attr title "ARP request sent, vector(packetBytes)"
vector 175 GPSRNetworkManual.host2.wlan[0].mac.dcf packetSentToPeerBroadcast:vector(packetBytes) ETV
attr interpolationmode none
attr source ieee80211Broadcast(packetSentToPeer)
attr title "packets sent: broadcast , vector(packetBytes)"
vector 176 GPSRNetworkManual.host0.wlan[0].mac.dcf packetReceivedFromPeerBroadcast:vector(packetBytes) ETV
attr interpolationmode none
attr source ieee80211Broadcast(packetReceivedFromPeer)
attr title "packets received: broadcast, vector(packetBytes)"
vector 177 GPSRNetworkManual.host3.wlan[0].mac.dcf packetReceivedFromPeerBroadcast:vector(packetBytes) ETV
attr interpolationmode none
attr source ieee80211Broadcast(packetReceivedFromPeer)
attr title "packets received: broadcast, vector(packetBytes)"
vector 178 GPSRNetworkManual.host4.wlan[0].mac.dcf packetReceivedFromPeerBroadcast:vector(packetBytes) ETV
attr interpolationmode none
attr source ieee80211Broadcast(packetReceivedFromPeer)
attr title "packets received: broadcast, vector(packetBytes)"
vector 179 GPSRNetworkManual.host4.ipv4.arp arpReplySent:vector(packetBytes) ETV
attr source arpReplySent
attr title "ARP replies sent, vector(packetBytes)"
vector 180 GPSRNetworkManual.host7.wlan[0].mac.dcf packetReceivedFromPeerBroadcast:vector(packetBytes) ETV
attr interpolationmode none
attr source ieee80211Broadcast(packetReceivedFromPeer)
attr title "packets received: broadcast, vector(packetBytes)"
vector 181 GPSRNetworkManual.host4.wlan[0].mac.dcf packetSentToPeerUnicast:vector(packetBytes) ETV
attr interpolationmode none
attr source ieee80211Unicast(packetSentToPeer)
attr title "packets sent: unicast, vector(packetBytes)"
vector 182 GPSRNetworkManual.host5.wlan[0].mac.rx nav:vector ETV
attr interpolationmode linear
attr source navChanged
attr title "network allocation vector, vector"
vector 183 GPSRNetworkManual.host5.wlan[0].mac.dcf packetDrop:vector(packetBytes) ETV
attr interpolationmode none
attr source packetDropped
attr title "packet drops, vector(packetBytes)"
vector 184 GPSRNetworkManual.host5.wlan[0].mac.dcf packetDropNotAddressedToUs:vector(packetBytes) ETV
attr interpolationmode none
attr source packetDropReasonIsNotAddressedToUs(packetDropped)
attr title "packet drops: not addressed to us, vector(packetBytes)"
vector 185 GPSRNetworkManual.host5.wlan[0].mac packetDrop:vector(packetBytes) ETV
attr interpolationmode none
attr source packetDropped
attr title "packet drops, vector(packetBytes)"
vector 186 GPSRNetworkManual.host5.wlan[0].mac packetDropNotAddressedToUs:vector(packetBytes) ETV
attr interpolationmode none
attr source packetDropReasonIsNotAddressedToUs(packetDropped)
attr title "packet drops: not addressed to us, vector(packetBytes)"
vector 187 GPSRNetworkManual.host6.wlan[0].mac.rx nav:vector ETV
attr interpolationmode linear
attr source navChanged
attr title "network allocation vector, vector"
vector 188 GPSRNetworkManual.host6.wlan[0].mac.dcf packetDrop:vector(packetBytes) ETV
attr interpolationmode none
attr source packetDropped
attr title "packet drops, vector(packetBytes)"
vector 189 GPSRNetworkManual.host6.wlan[0].mac.dcf packetDropNotAddressedToUs:vector(packetBytes) ETV
attr interpolationmode none
attr source packetDropReasonIsNotAddressedToUs(packetDropped)
attr title "packet drops: not addressed to us, vector(packetBytes)"
vector 190 GPSRNetworkManual.host6.wlan[0].mac packetDrop:vector(packetBytes) ETV
attr interpolationmode none
attr source packetDropped
attr title "packet drops, vector(packetBytes)"
vector 191 GPSRNetworkManual.host6.wlan[0].mac packetDropNotAddressedToUs:vector(packetBytes) ETV
attr interpolationmode none
attr source packetDropReasonIsNotAddressedToUs(packetDropped)
attr title "packet drops: not addressed to us, vector(packetBytes)"
vector 192 GPSRNetworkManual.host0.wlan[0].mac.dcf packetDrop:vector(packetBytes) ETV
attr interpolationmode none
attr source packetDropped
attr title "packet drops, vector(packetBytes)"
vector 193 GPSRNetworkManual.host0.wlan[0].mac.dcf packetDropNotAddressedToUs:vector(packetBytes) ETV
attr interpolationmode none
attr source packetDropReasonIsNotAddressedToUs(packetDropped)
attr title "packet drops: not addressed to us, vector(packetBytes)"
vector 194 GPSRNetworkManual.host0.wlan[0].mac packetDrop:vector(packetBytes) ETV
attr interpolationmode none
attr source packetDropped
attr title "packet drops, vector(packetBytes)"
vector 195 GPSRNetworkManual.host0.wlan[0].mac packetDropNotAddressedToUs:vector(packetBytes) ETV
attr interpolationmode none
attr source packetDropReasonIsNotAddressedToUs(packetDropped)
attr title "packet drops: not addressed to us, vector(packetBytes)"
vector 196 GPSRNetworkManual.host4.wlan[0].mac.dcf packetReceivedFromPeerUnicast:vector(packetBytes) ETV
attr interpolationmode none
attr source ieee80211Unicast(packetReceivedFromPeer)
attr title "packets received: unicast, vector(packetBytes)"
vector 197 GPSRNetworkManual.host4.ipv4.arp arpRequestSent:vector(packetBytes) ETV
attr source arpRequestSent
attr title "ARP request sent, vector(packetBytes)"
vector 198 GPSRNetworkManual.host4.wlan[0].mac.dcf packetSentToPeerBroadcast:vector(packetBytes) ETV
attr interpolationmode none
attr source ieee80211Broadcast(packetSentToPeer)
attr title "packets sent: broadcast , vector(packetBytes)"
vector 199 GPSRNetworkManual.host5.wlan[0].mac.dcf packetReceivedFromPeerBroadcast:vector(packetBytes) ETV
attr interpolationmode none
attr source ieee80211Broadcast(packetReceivedFromPeer)
attr title "packets received: broadcast, vector(packetBytes)"
vector 200 GPSRNetworkManual.host6.wlan[0].mac.dcf packetReceivedFromPeerBroadcast:vector(packetBytes) ETV
attr interpolationmode none
attr source ieee80211Broadcast(packetReceivedFromPeer)
attr title "packets received: broadcast, vector(packetBytes)"
vector 201 GPSRNetworkManual.host6.ipv4.arp arpReplySent:vector(packetBytes) ETV
attr source arpReplySent
attr title "ARP replies sent, vector(packetBytes)"
vector 202 GPSRNetworkManual.host6.wlan[0].mac.dcf packetSentToPeerUnicast:vector(packetBytes) ETV
attr interpolationmode none
attr source ieee80211Unicast(packetSentToPeer)
attr title "packets sent: unicast, vector(packetBytes)"
vector 203 GPSRNetworkManual.host10.wlan[0].mac.rx nav:vector ETV
attr interpolationmode linear
attr source navChanged
attr title "network allocation vector, vector"
vector 204 GPSRNetworkManual.host10.wlan[0].mac.dcf packetDrop:vector(packetBytes) ETV
attr interpolationmode none
attr source packetDropped
attr title "packet drops, vector(packetBytes)"
vector 205 GPSRNetworkManual.host10.wlan[0].mac.dcf packetDropNotAddressedToUs:vector(packetBytes) ETV
attr interpolationmode none
attr source packetDropReasonIsNotAddressedToUs(packetDropped)
attr title "packet drops: not addressed to us, vector(packetBytes)"
vector 206 GPSRNetworkManual.host10.wlan[0].mac packetDrop:vector(packetBytes) ETV
attr interpolationmode none
attr source packetDropped
attr title "packet drops, vector(packetBytes)"
vector 207 GPSRNetworkManual.host10.wlan[0].mac packetDropNotAddressedToUs:vector(packetBytes) ETV
attr interpolationmode none
attr source packetDropReasonIsNotAddressedToUs(packetDropped)
attr title "packet drops: not addressed to us, vector(packetBytes)"
vector 208 GPSRNetworkManual.host6.wlan[0].mac.dcf packetReceivedFromPeerUnicast:vector(packetBytes) ETV
attr interpolationmode none
attr source ieee80211Unicast(packetReceivedFromPeer)
attr title "packets received: unicast, vector(packetBytes)"
vector 209 GPSRNetworkManual.host2.wlan[0].mac.dcf packetDrop:vector(packetBytes) ETV
attr interpolationmode none
attr source packetDropped
attr title "packet drops, vector(packetBytes)"
vector 210 GPSRNetworkManual.host2.wlan[0].mac.dcf packetDropNotAddressedToUs:vector(packetBytes) ETV
attr interpolationmode none
attr source packetDropReasonIsNotAddressedToUs(packetDropped)
attr title "packet drops: not addressed to us, vector(packetBytes)"
vector 211 GPSRNetworkManual.host2.wlan[0].mac packetDrop:vector(packetBytes) ETV
attr interpolationmode none
attr source packetDropped
attr title "packet drops, vector(packetBytes)"
vector 212 GPSRNetworkManual.host2.wlan[0].mac packetDropNotAddressedToUs:vector(packetBytes) ETV
attr interpolationmode none
attr source packetDropReasonIsNotAddressedToUs(packetDropped)
attr title "packet drops: not addressed to us, vector(packetBytes)"
vector 213 GPSRNetworkManual.host7.wlan[0].mac packetReceivedFromUpper:vector(packetBytes) ETV
attr interpolationmode none
attr title "packets received from upper layer, vector(packetBytes)"
vector 214 GPSRNetworkManual.host7.wlan[0].mac.dcf.channelAccess.pendingQueue packetPushed:vector(packetBytes) ETV
attr interpolationmode none
attr title "packet pushed, vector(packetBytes)"
vector 215 GPSRNetworkManual.host7.wlan[0].mac.dcf.channelAccess.pendingQueue queueLength:vector ETV
attr interpolationmode sample-hold
attr source "count(packetPushed) - count(packetPopped) - count(packetRemoved) - count(packetDropped)"
attr title "queue length, vector"
vector 216 GPSRNetworkManual.host7.wlan[0].mac.dcf.channelAccess.contention backoffPeriodGenerated:vector ETV
attr interpolationmode none
attr title "backoff periods, vector"
vector 217 GPSRNetworkManual.host7.wlan[0].mac.dcf.channelAccess.contention backoffActive:vector ETV
attr interpolationmode sample-hold
attr source count(backoffStarted)-count(backoffStopped)
attr title "backoff active, vector"
vector 218 GPSRNetworkManual.host7.wlan[0].mac.dcf.channelAccess.pendingQueue packetPopped:vector(packetBytes) ETV
attr interpolationmode none
attr title "packet popped, vector(packetBytes)"
vector 219 GPSRNetworkManual.host7.wlan[0].mac.dcf.channelAccess.pendingQueue queueingTime:vector ETV
attr interpolationmode none
attr source queueingTime(packetPopped)
attr title "queueing times, vector"
attr unit s
vector 220 GPSRNetworkManual.host7.wlan[0].mac.dcf.channelAccess.inProgressFrames queueLength:vector ETV
attr interpolationmode sample-hold
attr source "count(packetEnqueued) - count(packetDequeued)"
attr title "queue length, vector"
vector 221 GPSRNetworkManual.host7.wlan[0].mac.dcf datarateSelected:vector ETV
attr interpolationmode none
attr title "datarates selected, vector"
vector 222 GPSRNetworkManual.host7.wlan[0].mac packetSentToLower:vector(packetBytes) ETV
attr interpolationmode none
attr title "packets sent to lower layer, vector(packetBytes)"
vector 223 GPSRNetworkManual.host7.wlan[0].mac.dcf frameSequenceActive:vector ETV
attr interpolationmode sample-hold
attr source count(frameSequenceStarted)-count(frameSequenceFinished)
attr title "frame sequence active, vector"
vector 224 GPSRNetworkManual.host7.wlan[0].radio transmissionState:vector ETV
attr interpolationmode sample-hold
attr source transmissionStateChanged
attr title "Radio transmission state, vector"
vector 225 GPSRNetworkManual.host7.wlan[0].mac.dcf packetSentToPeer:vector(packetBytes) ETV
attr interpolationmode none
attr title "packets sent, vector(packetBytes)"
vector 226 GPSRNetworkManual.host7.wlan[0].mac.dcf packetSentToPeerMulticast:vector(packetBytes) ETV
attr interpolationmode none
attr source ieee80211Multicast(packetSentToPeer)
attr title "packets sent: multicast, vector(packetBytes)"
vector 227 GPSRNetworkManual.host7.wlan[0].mac.dcf packetSentToPeerWithoutRetry:vector(packetBytes) ETV
attr interpolationmode none
attr source ieee80211NotRetry(packetSentToPeer)
attr title "packets sent: without retry, vector(packetBytes)"
vector 228 GPSRNetworkManual.host7.wlan[0].mac.dcf.channelAccess.inProgressFrames queueingTime:vector ETV
attr interpolationmode none
attr source queueingTime(packetDequeued)
attr title "queueing times, vector"
vector 229 GPSRNetworkManual.host8.wlan[0].mac packetReceivedFromLower:vector(packetBytes) ETV
attr interpolationmode none
attr title "packets received from lower layer, vector(packetBytes)"
vector 230 GPSRNetworkManual.host8.wlan[0].mac.dcf packetReceivedFromPeer:vector(packetBytes) ETV
attr interpolationmode none
attr title "packets received, vector(packetBytes)"
vector 231 GPSRNetworkManual.host8.wlan[0].mac.dcf packetReceivedFromPeerMulticast:vector(packetBytes) ETV
attr interpolationmode none
attr source ieee80211Multicast(packetReceivedFromPeer)
attr title "packets received: multicast, vector(packetBytes)"
vector 232 GPSRNetworkManual.host8.wlan[0].mac.dcf packetReceivedFromPeerWithoutRetry:vector(packetBytes) ETV
attr interpolationmode none
attr source ieee80211NotRetry(packetReceivedFromPeer)
attr title "packets received: without retry, vector(packetBytes)"
vector 233 GPSRNetworkManual.host8.wlan[0].mac packetSentToUpper:vector(packetBytes) ETV
attr interpolationmode none
attr title "packets sent to upper layer, vector(packetBytes)"
vector 234 GPSRNetworkManual.host9.wlan[0].mac packetReceivedFromLower:vector(packetBytes) ETV
attr interpolationmode none
attr title "packets received from lower layer, vector(packetBytes)"
vector 235 GPSRNetworkManual.host9.wlan[0].mac.dcf packetReceivedFromPeer:vector(packetBytes) ETV
attr interpolationmode none
attr title "packets received, vector(packetBytes)"
vector 236 GPSRNetworkManual.host9.wlan[0].mac.dcf packetReceivedFromPeerMulticast:vector(packetBytes) ETV
attr interpolationmode none
attr source ieee80211Multicast(packetReceivedFromPeer)
attr title "packets received: multicast, vector(packetBytes)"
vector 237 GPSRNetworkManual.host9.wlan[0].mac.dcf packetReceivedFromPeerWithoutRetry:vector(packetBytes) ETV
attr interpolationmode none
attr source ieee80211NotRetry(packetReceivedFromPeer)
attr title "packets received: without retry, vector(packetBytes)"
vector 238 GPSRNetworkManual.host9.wlan[0].mac packetSentToUpper:vector(packetBytes) ETV
attr interpolationmode none
attr title "packets sent to upper layer, vector(packetBytes)"
vector 239 GPSRNetworkManual.host7.ipv4.arp arpReplySent:vector(packetBytes) ETV
attr source arpReplySent
attr title "ARP replies sent, vector(packetBytes)"
vector 240 GPSRNetworkManual.host7.wlan[0].mac.dcf packetSentToPeerUnicast:vector(packetBytes) ETV
attr interpolationmode none
attr source ieee80211Unicast(packetSentToPeer)
attr title "packets sent: unicast, vector(packetBytes)"
vector 241 GPSRNetworkManual.host8.wlan[0].mac.rx nav:vector ETV
attr interpolationmode linear
attr source navChanged
attr title "network allocation vector, vector"
vector 242 GPSRNetworkManual.host8.wlan[0].mac.dcf packetDrop:vector(packetBytes) ETV
attr interpolationmode none
attr source packetDropped
attr title "packet drops, vector(packetBytes)"
vector 243 GPSRNetworkManual.host8.wlan[0].mac.dcf packetDropNotAddressedToUs:vector(packetBytes) ETV
attr interpolationmode none
attr source packetDropReasonIsNotAddressedToUs(packetDropped)
attr title "packet drops: not addressed to us, vector(packetBytes)"
vector 244 GPSRNetworkManual.host8.wlan[0].mac packetDrop:vector(packetBytes) ETV
attr interpolationmode none
attr source packetDropped
attr title "packet drops, vector(packetBytes)"
vector 245 GPSRNetworkManual.host8.wlan[0].mac packetDropNotAddressedToUs:vector(packetBytes) ETV
attr interpolationmode none
attr source packetDropReasonIsNotAddressedToUs(packetDropped)
attr title "packet drops: not addressed to us, vector(packetBytes)"
vector 246 GPSRNetworkManual.host9.wlan[0].mac.rx nav:vector ETV
attr interpolationmode linear
attr source navChanged
attr title "network allocation vector, vector"
vector 247 GPSRNetworkManual.host9.wlan[0].mac.dcf packetDrop:vector(packetBytes) ETV
attr interpolationmode none
attr source packetDropped
attr title "packet drops, vector(packetBytes)"
vector 248 GPSRNetworkManual.host9.wlan[0].mac.dcf packetDropNotAddressedToUs:vector(packetBytes) ETV
attr interpolationmode none
attr source packetDropReasonIsNotAddressedToUs(packetDropped)
attr title "packet drops: not addressed to us, vector(packetBytes)"
vector 249 GPSRNetworkManual.host9.wlan[0].mac packetDrop:vector(packetBytes) ETV
attr interpolationmode none
attr source packetDropped
attr title "packet drops, vector(packetBytes)"
vector 250 GPSRNetworkManual.host9.wlan[0].mac packetDropNotAddressedToUs:vector(packetBytes) ETV
attr interpolationmode none
attr source packetDropReasonIsNotAddressedToUs(packetDropped)
attr title "packet drops: not addressed to us, vector(packetBytes)"
vector 251 GPSRNetworkManual.host7.wlan[0].mac.dcf packetReceivedFromPeerUnicast:vector(packetBytes) ETV
attr interpolationmode none
attr source ieee80211Unicast(packetReceivedFromPeer)
attr title "packets received: unicast, vector(packetBytes)"
vector 252 GPSRNetworkManual.host1.wlan[0].mac packetReceivedFromUpper:vector(packetBytes) ETV
attr interpolationmode none
attr title "packets received from upper layer, vector(packetBytes)"
vector 253 GPSRNetworkManual.host1.wlan[0].mac.dcf.channelAccess.pendingQueue packetPushed:vector(packetBytes) ETV
attr interpolationmode none
attr title "packet pushed, vector(packetBytes)"
vector 254 GPSRNetworkManual.host1.wlan[0].mac.dcf.channelAccess.pendingQueue queueLength:vector ETV
attr interpolationmode sample-hold
attr source "count(packetPushed) - count(packetPopped) - count(packetRemoved) - count(packetDropped)"
attr title "queue length, vector"
vector 255 GPSRNetworkManual.host1.wlan[0].mac.dcf.channelAccess.contention backoffPeriodGenerated:vector ETV
attr interpolationmode none
attr title "backoff periods, vector"
vector 256 GPSRNetworkManual.host1.wlan[0].mac.dcf.channelAccess.contention backoffActive:vector ETV
attr interpolationmode sample-hold
attr source count(backoffStarted)-count(backoffStopped)
attr title "backoff active, vector"
vector 257 GPSRNetworkManual.host1.wlan[0].mac.dcf.channelAccess.pendingQueue packetPopped:vector(packetBytes) ETV
attr interpolationmode none
attr title "packet popped, vector(packetBytes)"
vector 258 GPSRNetworkManual.host1.wlan[0].mac.dcf.channelAccess.pendingQueue queueingTime:vector ETV
attr interpolationmode none
attr source queueingTime(packetPopped)
attr title "queueing times, vector"
attr unit s
vector 259 GPSRNetworkManual.host1.wlan[0].mac.dcf.channelAccess.inProgressFrames queueLength:vector ETV
attr interpolationmode sample-hold
attr source "count(packetEnqueued) - count(packetDequeued)"
attr title "queue length, vector"
vector 260 GPSRNetworkManual.host1.wlan[0].mac.dcf datarateSelected:vector ETV
attr interpolationmode none
attr title "datarates selected, vector"
vector 261 GPSRNetworkManual.host1.wlan[0].mac packetSentToLower:vector(packetBytes) ETV
attr interpolationmode none
attr title "packets sent to lower layer, vector(packetBytes)"
vector 262 GPSRNetworkManual.host1.wlan[0].mac.dcf frameSequenceActive:vector ETV
attr interpolationmode sample-hold
attr source count(frameSequenceStarted)-count(frameSequenceFinished)
attr title "frame sequence active, vector"
vector 263 GPSRNetworkManual.host1.wlan[0].radio transmissionState:vector ETV
attr interpolationmode sample-hold
attr source transmissionStateChanged
attr title "Radio transmission state, vector"
vector 264 GPSRNetworkManual.host1.wlan[0].mac.dcf packetSentToPeer:vector(packetBytes) ETV
attr interpolationmode none
attr title "packets sent, vector(packetBytes)"
vector 265 GPSRNetworkManual.host1.wlan[0].mac.dcf packetSentToPeerMulticast:vector(packetBytes) ETV
attr interpolationmode none
attr source ieee80211Multicast(packetSentToPeer)
attr title "packets sent: multicast, vector(packetBytes)"
vector 266 GPSRNetworkManual.host1.wlan[0].mac.dcf packetSentToPeerWithoutRetry:vector(packetBytes) ETV
attr interpolationmode none
attr source ieee80211NotRetry(packetSentToPeer)
attr title "packets sent: without retry, vector(packetBytes)"
vector 267 GPSRNetworkManual.host1.wlan[0].mac.dcf.channelAccess.inProgressFrames queueingTime:vector ETV
attr interpolationmode none
attr source queueingTime(packetDequeued)
attr title "queueing times, vector"
vector 268 GPSRNetworkManual.host8.wlan[0].mac packetReceivedFromUpper:vector(packetBytes) ETV
attr interpolationmode none
attr title "packets received from upper layer, vector(packetBytes)"
vector 269 GPSRNetworkManual.host8.wlan[0].mac.dcf.channelAccess.pendingQueue packetPushed:vector(packetBytes) ETV
attr interpolationmode none
attr title "packet pushed, vector(packetBytes)"
vector 270 GPSRNetworkManual.host8.wlan[0].mac.dcf.channelAccess.pendingQueue queueLength:vector ETV
attr interpolationmode sample-hold
attr source "count(packetPushed) - count(packetPopped) - count(packetRemoved) - count(packetDropped)"
attr title "queue length, vector"
vector 271 GPSRNetworkManual.host8.wlan[0].mac.dcf.channelAccess.contention backoffPeriodGenerated:vector ETV
attr interpolationmode none
attr title "backoff periods, vector"
vector 272 GPSRNetworkManual.host8.wlan[0].mac.dcf.channelAccess.contention backoffActive:vector ETV
attr interpolationmode sample-hold
attr source count(backoffStarted)-count(backoffStopped)
attr title "backoff active, vector"
vector 273 GPSRNetworkManual.host8.wlan[0].mac.dcf.channelAccess.pendingQueue packetPopped:vector(packetBytes) ETV
attr interpolationmode none
attr title "packet popped, vector(packetBytes)"
vector 274 GPSRNetworkManual.host8.wlan[0].mac.dcf.channelAccess.pendingQueue queueingTime:vector ETV
attr interpolationmode none
attr source queueingTime(packetPopped)
attr title "queueing times, vector"
attr unit s
vector 275 GPSRNetworkManual.host8.wlan[0].mac.dcf.channelAccess.inProgressFrames queueLength:vector ETV
attr interpolationmode sample-hold
attr source "count(packetEnqueued) - count(packetDequeued)"
attr title "queue length, vector"
vector 276 GPSRNetworkManual.host8.wlan[0].mac.dcf datarateSelected:vector ETV
attr interpolationmode none
attr title "datarates selected, vector"
vector 277 GPSRNetworkManual.host8.wlan[0].mac packetSentToLower:vector(packetBytes) ETV
attr interpolationmode none
attr title "packets sent to lower layer, vector(packetBytes)"
vector 278 GPSRNetworkManual.host8.wlan[0].mac.dcf frameSequenceActive:vector ETV
attr interpolationmode sample-hold
attr source count(frameSequenceStarted)-count(frameSequenceFinished)
attr title "frame sequence active, vector"
vector 279 GPSRNetworkManual.host8.wlan[0].radio transmissionState:vector ETV
attr interpolationmode sample-hold
attr source transmissionStateChanged
attr title "Radio transmission state, vector"
vector 280 GPSRNetworkManual.host8.wlan[0].mac.dcf packetSentToPeer:vector(packetBytes) ETV
attr interpolationmode none
attr title "packets sent, vector(packetBytes)"
vector 281 GPSRNetworkManual.host8.wlan[0].mac.dcf packetSentToPeerMulticast:vector(packetBytes) ETV
attr interpolationmode none
attr source ieee80211Multicast(packetSentToPeer)
attr title "packets sent: multicast, vector(packetBytes)"
vector 282 GPSRNetworkManual.host8.wlan[0].mac.dcf packetSentToPeerWithoutRetry:vector(packetBytes) ETV
attr interpolationmode none
attr source ieee80211NotRetry(packetSentToPeer)
attr title "packets sent: without retry, vector(packetBytes)"
vector 283 GPSRNetworkManual.host8.wlan[0].mac.dcf.channelAccess.inProgressFrames queueingTime:vector ETV
attr interpolationmode none
attr source queueingTime(packetDequeued)
attr title "queueing times, vector"
vector 284 GPSRNetworkManual.host7.ipv4.arp arpRequestSent:vector(packetBytes) ETV
attr source arpRequestSent
attr title "ARP request sent, vector(packetBytes)"
vector 285 GPSRNetworkManual.host7.wlan[0].mac.dcf packetSentToPeerBroadcast:vector(packetBytes) ETV
attr interpolationmode none
attr source ieee80211Broadcast(packetSentToPeer)
attr title "packets sent: broadcast , vector(packetBytes)"
vector 286 GPSRNetworkManual.host8.wlan[0].mac.dcf packetReceivedFromPeerBroadcast:vector(packetBytes) ETV
attr interpolationmode none
attr source ieee80211Broadcast(packetReceivedFromPeer)
attr title "packets received: broadcast, vector(packetBytes)"
vector 287 GPSRNetworkManual.host8.ipv4.arp arpReplySent:vector(packetBytes) ETV
attr source arpReplySent
attr title "ARP replies sent, vector(packetBytes)"
vector 288 GPSRNetworkManual.host9.wlan[0].mac.dcf packetReceivedFromPeerBroadcast:vector(packetBytes) ETV
attr interpolationmode none
attr source ieee80211Broadcast(packetReceivedFromPeer)
attr title "packets received: broadcast, vector(packetBytes)"
vector 289 GPSRNetworkManual.host8.wlan[0].mac.dcf packetSentToPeerUnicast:vector(packetBytes) ETV
attr interpolationmode none
attr source ieee80211Unicast(packetSentToPeer)
attr title "packets sent: unicast, vector(packetBytes)"
vector 290 GPSRNetworkManual.host8.wlan[0].mac.dcf packetReceivedFromPeerUnicast:vector(packetBytes) ETV
attr interpolationmode none
attr source ieee80211Unicast(packetReceivedFromPeer)
attr title "packets received: unicast, vector(packetBytes)"
0	0	0	0
0	0	0	0
0	0	0	2
0	155	8.195254009217	3
0	168	8.195702009217	2
0	219	8.196210996567	3
0	234	8.196458996567	2
0	251	8.196528996567	3
0	264	8.197360996567	2
0	1002	8.843817082234	3
0	1015	8.844313082234	2
0	1038	9.195254009217	3
0	1051	9.196086009217	2
0	1402	9.202179531687	3
0	1417	9.202427531687	2
0	1434	9.202497531687	3
0	1447	9.203329531687	2
0	1976	10.195254009217	3
0	1989	10.196086009217	2
0	2340	10.202099531687	3
0	2355	10.202347531687	2
0	2372	10.202397531687	3
0	2385	10.203229531687	2
0	2970	11.195254009217	3
0	2983	11.196086009217	2
0	3334	11.202039531687	3
0	3349	11.202287531687	2
0	3366	11.202357531687	3
0	3379	11.203189531687	2
0	3857	12.195254009217	3
0	3870	12.196086009217	2
0	4221	12.202079531687	3
0	4236	12.202327531687	2
0	4253	12.202497531687	3
0	4266	12.203329531687	2
1	0	0	0
2	0	0	0
2	0	0	0
2	0	0	2
2	1902	9.375872099772	3
2	1915	9.376368099772	2
3	0	0	0
4	0	0	0
4	0	0	0
4	0	0	2
4	108	7.975346052554	3
4	121	7.975842052554	2
4	186	8.195752502892	3
4	199	8.196200502892	2
4	281	8.197371490242	3
4	296	8.197619490242	2
4	313	8.197749490242	3
4	326	8.198197490242	2
4	386	8.198766921834	3
4	404	8.199014921834	2
4	421	8.199064921834	3
4	434	8.199896921834	2
4	761	8.205144560482	3
4	779	8.205392560482	2
4	796	8.205442560482	3
4	811	8.206274560482	2
4	1068	9.196096502892	3
4	1083	9.196344502892	2
4	1100	9.196454502892	3
4	1113	9.197286502892	2
4	1334	9.201039038012	3
4	1352	9.201287038012	2
4	1369	9.201337038012	3
4	1382	9.202169038012	2
4	1464	9.203340025362	3
4	1479	9.203588025362	2
4	1496	9.203658025362	3
4	1509	9.204106025362	2
4	1569	9.204635475304	3
4	1587	9.204883475304	2
4	1604	9.205073475304	3
4	1617	9.205905475304	2
4	1707	9.207056925246	3
4	1726	9.207304925246	2
4	1743	9.207494925246	3
4	1757	9.208326925246	2
4	2006	10.196096502892	3
4	2021	10.196344502892	2
4	2038	10.196434502892	3
4	2051	10.197266502892	2
4	2272	10.200959038012	3
4	2290	10.201207038012	2
4	2307	10.201257038012	3
4	2320	10.202089038012	2
4	2402	10.203240025362	3
4	2417	10.203488025362	2
4	2434	10.203618025362	3
4	2447	10.204450025362	2
4	2775	10.20953715652	3
4	2794	10.20978515652	2
4	2811	10.20985515652	3
4	2825	10.21068715652	2
4	3000	11.196096502892	3
4	3015	11.196344502892	2
4	3032	11.196414502892	3
4	3045	11.197246502892	2
4	3266	11.200899038012	3
4	3284	11.201147038012	2
4	3301	11.201197038012	3
4	3314	11.202029038012	2
4	3396	11.203200025362	3
4	3411	11.203448025362	2
4	3428	11.203518025362	3
4	3441	11.204350025362	2
4	3663	11.207962315912	3
4	3681	11.208210315912	2
4	3698	11.208320315912	3
4	3713	11.209152315912	2
4	3887	12.196096502892	3
4	3902	12.196344502892	2
4	3919	12.196454502892	3
4	3932	12.197286502892	2
4	4153	12.200939038012	3
4	4171	12.201187038012	2
4	4188	12.201237038012	3
4	4201	12.202069038012	2
4	4283	12.203340025362	3
4	4298	12.203588025362	2
4	4315	12.203698025362	3
4	4328	12.204530025362	2
4	4550	12.208162315912	3
4	4568	12.208410315912	2
4	4585	12.208500315912	3
4	4600	12.209332315912	2
5	0	0	0
6	0	0	0
6	0	0	0
6	0	0	2
7	0	0	0
8	0	0	0
8	0	0	0
8	0	0	2
8	14	5.567129757255	3
8	27	5.567625757255	2
8	353	8.198308206038	3
8	366	8.198756206038	2
8	454	8.19990763763	3
8	471	8.20015563763	2
8	489	8.20026563763	3
8	502	8.20071363763	2
8	561	8.201322741158	3
8	577	8.201570741158	2
8	595	8.201740741158	3
8	608	8.202572741158	2
8	694	8.203863844686	3
8	710	8.204111844686	2
8	728	8.204301844686	3
8	741	8.205133844686	2
8	831	8.206285276278	3
8	849	8.206533276278	2
8	867	8.206623276278	3
8	881	8.207455276278	2
8	1133	9.197297218688	3
8	1150	9.197545218688	2
8	1168	9.197655218688	3
8	1181	9.198487218688	2
8	1267	9.199758322216	3
8	1283	9.200006322216	2
8	1301	9.200196322216	3
8	1314	9.201028322216	2
8	1777	9.208337641042	3
8	1795	9.208585641042	2
8	1813	9.208675641042	3
8	1827	9.209507641042	2
8	2071	10.197277218688	3
8	2088	10.197525218688	2
8	2106	10.197715218688	3
8	2119	10.198547218688	2
8	2205	10.199778322216	3
8	2221	10.200026322216	2
8	2239	10.200116322216	3
8	2252	10.200948322216	2
8	2845	10.210697872316	3
8	2862	10.210945872316	2
8	2881	10.211135872316	3
8	2895	10.211967872316	2
8	3065	11.197257218688	3
8	3082	11.197505218688	2
8	3100	11.197595218688	3
8	3113	11.198427218688	2
8	3199	11.199618322216	3
8	3215	11.199866322216	2
8	3233	11.200056322216	3
8	3246	11.200888322216	2
8	3733	11.209163031708	3
8	3750	11.209411031708	2
8	3768	11.209581031708	3
8	3783	11.210413031708	2
8	3952	12.197297218688	3
8	3969	12.197545218688	2
8	3987	12.197715218688	3
8	4000	12.198547218688	2
8	4086	12.199738322216	3
8	4102	12.199986322216	2
8	4120	12.200096322216	3
8	4133	12.200928322216	2
8	4620	12.209343031708	3
8	4637	12.209591031708	2
9	0	0	0
10	0	0	0
10	0	0	0
10	0	0	2
11	0	0	0
12	0	0	0
12	0	0	0
12	0	0	2
12	65	7.726562945172	3
12	78	7.727058945172	2
12	529	8.200864189394	3
12	542	8.201312189394	2
12	628	8.202583292922	3
12	645	8.202831292922	2
12	662	8.203021292922	3
12	675	8.203853292922	2
12	899	8.207465828042	3
12	917	8.207713828042	2
12	1201	9.198497770452	3
12	1218	9.198745770452	2
12	1235	9.198915770452	3
12	1248	9.199747770452	2
12	1845	9.209518192806	3
12	1863	9.209766192806	2
12	2139	10.198557770452	3
12	2156	10.198805770452	2
12	2173	10.198935770452	3
12	2186	10.199767770452	2
12	2913	10.21197842408	3
12	2931	10.21222642408	2
12	3133	11.198437770452	3
12	3150	11.198685770452	2
12	3167	11.198775770452	3
12	3180	11.199607770452	2
12	3801	11.210423583472	3
12	3818	11.210671583472	2
12	4020	12.198557770452	3
12	4037	12.198805770452	2
12	4054	12.198895770452	3
12	4067	12.199727770452	2
13	0	0	0
14	0	0	0
14	0	0	0
14	0	0	2
14	956	8.834415213205	3
14	969	8.834911213205	2
14	1536	9.204176750333	3
14	1549	9.204624750333	2
14	1637	9.205916200275	3
14	1656	9.206164200275	2
14	1673	9.206214200275	3
14	1687	9.207046200275	2
14	2467	10.204460750333	3
14	2485	10.204708750333	2
14	2502	10.204858750333	3
14	2515	10.205306750333	2
14	2573	10.205915590941	3
14	2590	10.206163590941	2
14	2607	10.206333590941	3
14	2621	10.207165590941	2
14	2707	10.208316431549	3
14	2724	10.208564431549	2
14	2741	10.208694431549	3
14	2755	10.209526431549	2
14	3461	11.204360750333	3
14	3479	11.204608750333	2
14	3496	11.204798750333	3
14	3509	11.205630750333	2
14	3595	11.206801590941	3
14	3611	11.207049590941	2
14	3628	11.207119590941	3
14	3643	11.207951590941	2
14	4348	12.204540750333	3
14	4366	12.204788750333	2
14	4383	12.204938750333	3
14	4396	12.205770750333	2
14	4482	12.207001590941	3
14	4498	12.207249590941	2
14	4516	12.207319590941	3
14	4530	12.208151590941	2
15	0	0	0
16	0	0	0
16	0	0	0
16	0	0	2
16	1937	9.776651116554	3
16	1950	9.777147116554	2
16	2542	10.205457170637	3
16	2555	10.205905170637	2
16	2641	10.207176011245	3
16	2657	10.207424011245	2
16	2675	10.207474011245	3
16	2689	10.208306011245	2
16	3529	11.205641170637	3
16	3544	11.205889170637	2
16	3562	11.205959170637	3
16	3577	11.206791170637	2
16	4416	12.205781170637	3
16	4431	12.206029170637	2
16	4450	12.206159170637	3
16	4464	12.206991170637	2
17	0	0	0
18	0	0	0
18	0	0	0
18	0	0	2
19	0	0	0
20	0	0	0
20	0	0	0
20	0	0	2
21	0	0	0
22	0	0	1
22	110	7.975346546229	3
22	122	7.975842546229	1
22	155	8.195254009217	0
22	168	8.195702009217	1
22	188	8.195752996567	3
22	200	8.196200996567	1
22	219	8.196210996567	0
22	234	8.196458996567	1
22	251	8.196528996567	0
22	264	8.197360996567	1
22	283	8.197371983917	3
22	297	8.197619983917	1
22	315	8.197749983917	3
22	327	8.198197983917	1
22	388	8.198767415509	3
22	405	8.199015415509	1
22	423	8.199065415509	3
22	435	8.199897415509	1
22	763	8.205145054157	3
22	780	8.205393054157	1
22	798	8.205443054157	3
22	812	8.206275054157	1
22	1002	8.843817082234	0
22	1015	8.844313082234	1
22	1038	9.195254009217	0
22	1051	9.196086009217	1
22	1070	9.196096996567	3
22	1084	9.196344996567	1
22	1102	9.196454996567	3
22	1114	9.197286996567	1
22	1336	9.201039531687	3
22	1353	9.201287531687	1
22	1371	9.201337531687	3
22	1383	9.202169531687	1
22	1402	9.202179531687	0
22	1417	9.202427531687	1
22	1434	9.202497531687	0
22	1447	9.203329531687	1
22	1466	9.203340519037	3
22	1480	9.203588519037	1
22	1498	9.203658519037	3
22	1510	9.204106519037	1
22	1571	9.204635968979	3
22	1588	9.204883968979	1
22	1606	9.205073968979	3
22	1618	9.205905968979	1
22	1709	9.207057418921	3
22	1727	9.207305418921	1
22	1745	9.207495418921	3
22	1758	9.208327418921	1
22	1976	10.195254009217	0
22	1989	10.196086009217	1
22	2008	10.196096996567	3
22	2022	10.196344996567	1
22	2040	10.196434996567	3
22	2052	10.197266996567	1
22	2274	10.200959531687	3
22	2291	10.201207531687	1
22	2309	10.201257531687	3
22	2321	10.202089531687	1
22	2340	10.202099531687	0
22	2355	10.202347531687	1
22	2372	10.202397531687	0
22	2385	10.203229531687	1
22	2404	10.203240519037	3
22	2418	10.203488519037	1
22	2436	10.203618519037	3
22	2448	10.204450519037	1
22	2777	10.209537650195	3
22	2795	10.209785650195	1
22	2813	10.209855650195	3
22	2826	10.210687650195	1
22	2970	11.195254009217	0
22	2983	11.196086009217	1
22	3002	11.196096996567	3
22	3016	11.196344996567	1
22	3034	11.196414996567	3
22	3046	11.197246996567	1
22	3268	11.200899531687	3
22	3285	11.201147531687	1
22	3303	11.201197531687	3
22	3315	11.202029531687	1
22	3334	11.202039531687	0
22	3349	11.202287531687	1
22	3366	11.202357531687	0
22	3379	11.203189531687	1
22	3398	11.203200519037	3
22	3412	11.203448519037	1
22	3430	11.203518519037	3
22	3442	11.204350519037	1
22	3665	11.207962809587	3
22	3682	11.208210809587	1
22	3700	11.208320809587	3
22	3714	11.209152809587	1
22	3857	12.195254009217	0
22	3870	12.196086009217	1
22	3889	12.196096996567	3
22	3903	12.196344996567	1
22	3921	12.196454996567	3
22	3933	12.197286996567	1
22	4155	12.200939531687	3
22	4172	12.201187531687	1
22	4190	12.201237531687	3
22	4202	12.202069531687	1
22	4221	12.202079531687	0
22	4236	12.202327531687	1
22	4253	12.202497531687	0
22	4266	12.203329531687	1
22	4285	12.203340519037	3
22	4299	12.203588519037	1
22	4317	12.203698519037	3
22	4329	12.204530519037	1
22	4552	12.208162809587	3
22	4569	12.208410809587	1
22	4587	12.208500809587	3
22	4601	12.209332809587	1
23	0	0	1
23	1902	9.375872099772	0
23	1915	9.376368099772	1
24	0	0	1
24	19	5.567130473051	3
24	43	5.567626473051	1
24	108	7.975346052554	0
24	121	7.975842052554	1
24	157	8.195254502892	3
24	169	8.195702502892	1
24	186	8.195752502892	0
24	199	8.196200502892	1
24	221	8.196211490242	3
24	238	8.196459490242	1
24	253	8.196529490242	3
24	265	8.197361490242	1
24	281	8.197371490242	0
24	296	8.197619490242	1
24	313	8.197749490242	0
24	326	8.198197490242	1
24	358	8.198308921834	3
24	373	8.198756921834	1
24	386	8.198766921834	0
24	404	8.199014921834	1
24	421	8.199064921834	0
24	434	8.199896921834	1
24	459	8.199908353426	3
24	479	8.200156353426	1
24	494	8.200266353426	3
24	517	8.200714353426	1
24	566	8.201323456954	3
24	585	8.201571456954	1
24	600	8.201741456954	3
24	619	8.202573456954	1
24	699	8.203864560482	3
24	718	8.204112560482	1
24	733	8.204302560482	3
24	748	8.205134560482	1
24	761	8.205144560482	0
24	779	8.205392560482	1
24	796	8.205442560482	0
24	811	8.206274560482	1
24	836	8.206285992074	3
24	857	8.206533992074	1
24	872	8.206623992074	3
24	890	8.207455992074	1
24	961	8.834415938176	3
24	985	8.834911938176	1
24	1004	8.843817575909	3
24	1016	8.844313575909	1
24	1040	9.195254502892	3
24	1052	9.196086502892	1
24	1068	9.196096502892	0
24	1083	9.196344502892	1
24	1100	9.196454502892	0
24	1113	9.197286502892	1
24	1138	9.197297934484	3
24	1158	9.197545934484	1
24	1173	9.197655934484	3
24	1192	9.198487934484	1
24	1272	9.199759038012	3
24	1291	9.200007038012	1
24	1306	9.200197038012	3
24	1321	9.201029038012	1
24	1334	9.201039038012	0
24	1352	9.201287038012	1
24	1369	9.201337038012	0
24	1382	9.202169038012	1
24	1404	9.202180025362	3
24	1421	9.202428025362	1
24	1436	9.202498025362	3
24	1448	9.203330025362	1
24	1464	9.203340025362	0
24	1479	9.203588025362	1
24	1496	9.203658025362	0
24	1509	9.204106025362	1
24	1541	9.204177475304	3
24	1556	9.204625475304	1
24	1569	9.204635475304	0
24	1587	9.204883475304	1
24	1604	9.205073475304	0
24	1617	9.205905475304	1
24	1642	9.205916925246	3
24	1663	9.206164925246	1
24	1678	9.206214925246	3
24	1694	9.207046925246	1
24	1707	9.207056925246	0
24	1726	9.207304925246	1
24	1743	9.207494925246	0
24	1757	9.208326925246	1
24	1782	9.208338356838	3
24	1803	9.208586356838	1
24	1818	9.208676356838	3
24	1836	9.209508356838	1
24	1978	10.195254502892	3
24	1990	10.196086502892	1
24	2006	10.196096502892	0
24	2021	10.196344502892	1
24	2038	10.196434502892	0
24	2051	10.197266502892	1
24	2076	10.197277934484	3
24	2096	10.197525934484	1
24	2111	10.197715934484	3
24	2130	10.198547934484	1
24	2210	10.199779038012	3
24	2229	10.200027038012	1
24	2244	10.200117038012	3
24	2259	10.200949038012	1
24	2272	10.200959038012	0
24	2290	10.201207038012	1
24	2307	10.201257038012	0
24	2320	10.202089038012	1
24	2342	10.202100025362	3
24	2359	10.202348025362	1
24	2374	10.202398025362	3
24	2386	10.203230025362	1
24	2402	10.203240025362	0
24	2417	10.203488025362	1
24	2434	10.203618025362	0
24	2447	10.204450025362	1
24	2472	10.204461475304	3
24	2492	10.204709475304	1
24	2507	10.204859475304	3
24	2530	10.205307475304	1
24	2578	10.205916315912	3
24	2597	10.206164315912	1
24	2612	10.206334315912	3
24	2632	10.207166315912	1
24	2712	10.20831715652	3
24	2731	10.20856515652	1
24	2746	10.20869515652	3
24	2762	10.20952715652	1
24	2775	10.20953715652	0
24	2794	10.20978515652	1
24	2811	10.20985515652	0
24	2825	10.21068715652	1
24	2850	10.210698588112	3
24	2870	10.210946588112	1
24	2886	10.211136588112	3
24	2904	10.211968588112	1
24	2972	11.195254502892	3
24	2984	11.196086502892	1
24	3000	11.196096502892	0
24	3015	11.196344502892	1
24	3032	11.196414502892	0
24	3045	11.197246502892	1
24	3070	11.197257934484	3
24	3090	11.197505934484	1
24	3105	11.197595934484	3
24	3124	11.198427934484	1
24	3204	11.199619038012	3
24	3223	11.199867038012	1
24	3238	11.200057038012	3
24	3253	11.200889038012	1
24	3266	11.200899038012	0
24	3284	11.201147038012	1
24	3301	11.201197038012	0
24	3314	11.202029038012	1
24	3336	11.202040025362	3
24	3353	11.202288025362	1
24	3368	11.202358025362	3
24	3380	11.203190025362	1
24	3396	11.203200025362	0
24	3411	11.203448025362	1
24	3428	11.203518025362	0
24	3441	11.204350025362	1
24	3466	11.204361475304	3
24	3486	11.204609475304	1
24	3501	11.204799475304	3
24	3520	11.205631475304	1
24	3600	11.206802315912	3
24	3618	11.207050315912	1
24	3633	11.207120315912	3
24	3650	11.207952315912	1
24	3663	11.207962315912	0
24	3681	11.208210315912	1
24	3698	11.208320315912	0
24	3713	11.209152315912	1
24	3738	11.209163747504	3
24	3758	11.209411747504	1
24	3773	11.209581747504	3
24	3792	11.210413747504	1
24	3859	12.195254502892	3
24	3871	12.196086502892	1
24	3887	12.196096502892	0
24	3902	12.196344502892	1
24	3919	12.196454502892	0
24	3932	12.197286502892	1
24	3957	12.197297934484	3
24	3977	12.197545934484	1
24	3992	12.197715934484	3
24	4011	12.198547934484	1
24	4091	12.199739038012	3
24	4110	12.199987038012	1
24	4125	12.200097038012	3
24	4140	12.200929038012	1
24	4153	12.200939038012	0
24	4171	12.201187038012	1
24	4188	12.201237038012	0
24	4201	12.202069038012	1
24	4223	12.202080025362	3
24	4240	12.202328025362	1
24	4255	12.202498025362	3
24	4267	12.203330025362	1
24	4283	12.203340025362	0
24	4298	12.203588025362	1
24	4315	12.203698025362	0
24	4328	12.204530025362	1
24	4353	12.204541475304	3
24	4373	12.204789475304	1
24	4388	12.204939475304	3
24	4407	12.205771475304	1
24	4487	12.207002315912	3
24	4505	12.207250315912	1
24	4521	12.207320315912	3
24	4537	12.208152315912	1
24	4550	12.208162315912	0
24	4568	12.208410315912	1
24	4585	12.208500315912	0
24	4600	12.209332315912	1
24	4625	12.209343747504	3
25	0	0	1
25	17	5.567130234252	3
25	33	5.567626234252	1
25	111	7.975346586257	3
25	127	7.975842586257	1
25	189	8.195753036595	3
25	206	8.196201036595	1
25	284	8.197372023945	3
25	299	8.197620023945	1
25	316	8.197750023945	3
25	331	8.198198023945	1
25	356	8.198308683035	3
25	369	8.198756683035	1
25	389	8.198767455537	3
25	407	8.199015455537	1
25	424	8.199065455537	3
25	437	8.199897455537	1
25	457	8.199908114627	3
25	475	8.200156114627	1
25	492	8.200266114627	3
25	507	8.200714114627	1
25	564	8.201323218155	3
25	581	8.201571218155	1
25	598	8.201741218155	3
25	611	8.202573218155	1
25	697	8.203864321683	3
25	714	8.204112321683	1
25	731	8.204302321683	3
25	744	8.205134321683	1
25	764	8.205145094185	3
25	782	8.205393094185	1
25	799	8.205443094185	3
25	814	8.206275094185	1
25	834	8.206285753275	3
25	853	8.206533753275	1
25	870	8.206623753275	3
25	884	8.207455753275	1
25	959	8.83441570022	3
25	975	8.83491170022	1
25	1071	9.196097036595	3
25	1086	9.196345036595	1
25	1103	9.196455036595	3
25	1116	9.197287036595	1
25	1136	9.197297695685	3
25	1154	9.197545695685	1
25	1171	9.197655695685	3
25	1184	9.198487695685	1
25	1270	9.199758799213	3
25	1287	9.200006799213	1
25	1304	9.200196799213	3
25	1317	9.201028799213	1
25	1337	9.201039571715	3
25	1355	9.201287571715	1
25	1372	9.201337571715	3
25	1389	9.202169571715	1
25	1467	9.203340559065	3
25	1482	9.203588559065	1
25	1499	9.203658559065	3
25	1514	9.204106559065	1
25	1539	9.204177237348	3
25	1552	9.204625237348	1
25	1572	9.204636009007	3
25	1590	9.204884009007	1
25	1607	9.205074009007	3
25	1620	9.205906009007	1
25	1640	9.20591668729	3
25	1659	9.20616468729	1
25	1676	9.20621468729	3
25	1690	9.20704668729	1
25	1710	9.207057458949	3
25	1729	9.207305458949	1
25	1746	9.207495458949	3
25	1760	9.208327458949	1
25	1780	9.208338118039	3
25	1799	9.208586118039	1
25	1816	9.208676118039	3
25	1830	9.209508118039	1
25	2009	10.196097036595	3
25	2024	10.196345036595	1
25	2041	10.196435036595	3
25	2054	10.197267036595	1
25	2074	10.197277695685	3
25	2092	10.197525695685	1
25	2109	10.197715695685	3
25	2122	10.198547695685	1
25	2208	10.199778799213	3
[...]
220	955	8.834415213205	1
220	968	8.834911213205	0
220	1535	9.204176750333	1
220	1595	9.204884200275	0
220	1672	9.206214200275	1
220	1734	9.207305650217	0
220	2501	10.204858750333	1
220	2514	10.205306750333	0
220	2606	10.206333590941	1
220	2664	10.207424431549	0
220	2740	10.208694431549	1
220	2802	10.209785881491	0
220	3495	11.204798750333	1
220	3551	11.205889590941	0
220	3627	11.207119590941	1
220	3689	11.208211040883	0
220	4382	12.204938750333	1
220	4438	12.206029590941	0
220	4515	12.207319590941	1
220	4576	12.208411040883	0
221	955	8.834415213205	2000000
221	1535	9.204176750333	2000000
221	1625	9.205906200275	2000000
221	1672	9.206214200275	2000000
221	2455	10.204450750333	2000000
221	2501	10.204858750333	2000000
221	2559	10.205905590941	2000000
221	2606	10.206333590941	2000000
221	2693	10.208306431549	2000000
221	2740	10.208694431549	2000000
221	3449	11.204350750333	2000000
221	3495	11.204798750333	2000000
221	3581	11.206791590941	2000000
221	3627	11.207119590941	2000000
221	4336	12.204530750333	2000000
221	4382	12.204938750333	2000000
221	4468	12.206991590941	2000000
221	4515	12.207319590941	2000000
222	955	8.834415213205	76
222	1535	9.204176750333	64
222	1636	9.205916200275	14
222	1672	9.206214200275	160
222	2466	10.204460750333	14
222	2501	10.204858750333	64
222	2572	10.205915590941	14
222	2606	10.206333590941	160
222	2706	10.208316431549	14
222	2740	10.208694431549	160
222	3460	11.204360750333	14
222	3495	11.204798750333	160
222	3594	11.206801590941	14
222	3627	11.207119590941	160
222	4347	12.204540750333	14
222	4382	12.204938750333	160
222	4481	12.207001590941	14
222	4515	12.207319590941	160
223	955	8.834415213205	1
223	968	8.834911213205	0
223	1535	9.204176750333	1
223	1595	9.204884200275	0
223	1672	9.206214200275	1
223	1734	9.207305650217	0
223	2501	10.204858750333	1
223	2514	10.205306750333	0
223	2606	10.206333590941	1
223	2664	10.207424431549	0
223	2740	10.208694431549	1
223	2802	10.209785881491	0
223	3495	11.204798750333	1
223	3551	11.205889590941	0
223	3627	11.207119590941	1
223	3689	11.208211040883	0
223	4382	12.204938750333	1
223	4438	12.206029590941	0
223	4515	12.207319590941	1
223	4576	12.208411040883	0
224	956	8.834415213205	1
224	957	8.834415213205	2
224	968	8.834911213205	1
224	969	8.834911213205	0
224	1536	9.204176750333	1
224	1537	9.204176750333	2
224	1548	9.204624750333	1
224	1549	9.204624750333	0
224	1637	9.205916200275	1
224	1638	9.205916200275	2
224	1655	9.206164200275	1
224	1656	9.206164200275	0
224	1673	9.206214200275	1
224	1674	9.206214200275	2
224	1686	9.207046200275	1
224	1687	9.207046200275	0
224	2467	10.204460750333	1
224	2468	10.204460750333	2
224	2484	10.204708750333	1
224	2485	10.204708750333	0
224	2502	10.204858750333	1
224	2503	10.204858750333	2
224	2514	10.205306750333	1
224	2515	10.205306750333	0
224	2573	10.205915590941	1
224	2574	10.205915590941	2
224	2589	10.206163590941	1
224	2590	10.206163590941	0
224	2607	10.206333590941	1
224	2608	10.206333590941	2
224	2620	10.207165590941	1
224	2621	10.207165590941	0
224	2707	10.208316431549	1
224	2708	10.208316431549	2
224	2723	10.208564431549	1
224	2724	10.208564431549	0
224	2741	10.208694431549	1
224	2742	10.208694431549	2
224	2754	10.209526431549	1
224	2755	10.209526431549	0
224	3461	11.204360750333	1
224	3462	11.204360750333	2
224	3478	11.204608750333	1
224	3479	11.204608750333	0
224	3496	11.204798750333	1
224	3497	11.204798750333	2
224	3508	11.205630750333	1
224	3509	11.205630750333	0
224	3595	11.206801590941	1
224	3596	11.206801590941	2
224	3610	11.207049590941	1
224	3611	11.207049590941	0
224	3628	11.207119590941	1
224	3629	11.207119590941	2
224	3642	11.207951590941	1
224	3643	11.207951590941	0
224	4348	12.204540750333	1
224	4349	12.204540750333	2
224	4365	12.204788750333	1
224	4366	12.204788750333	0
224	4383	12.204938750333	1
224	4384	12.204938750333	2
224	4395	12.205770750333	1
224	4396	12.205770750333	0
224	4482	12.207001590941	1
224	4483	12.207001590941	2
224	4497	12.207249590941	1
224	4498	12.207249590941	0
224	4516	12.207319590941	1
224	4517	12.207319590941	2
224	4529	12.208151590941	1
224	4530	12.208151590941	0
225	968	8.834911213205	76
225	1548	9.204624750333	64
225	1655	9.206164200275	14
225	1686	9.207046200275	160
225	2484	10.204708750333	14
225	2514	10.205306750333	64
225	2589	10.206163590941	14
225	2620	10.207165590941	160
225	2723	10.208564431549	14
225	2754	10.209526431549	160
225	3478	11.204608750333	14
225	3508	11.205630750333	160
225	3610	11.207049590941	14
225	3642	11.207951590941	160
225	4365	12.204788750333	14
225	4395	12.205770750333	160
225	4497	12.207249590941	14
225	4529	12.208151590941	160
226	968	8.834911213205	76
226	2514	10.205306750333	64
227	968	8.834911213205	76
227	1548	9.204624750333	64
227	1655	9.206164200275	14
227	1686	9.207046200275	160
227	2484	10.204708750333	14
227	2514	10.205306750333	64
227	2589	10.206163590941	14
227	2620	10.207165590941	160
227	2723	10.208564431549	14
227	2754	10.209526431549	160
227	3478	11.204608750333	14
227	3508	11.205630750333	160
227	3610	11.207049590941	14
227	3642	11.207951590941	160
227	4365	12.204788750333	14
227	4395	12.205770750333	160
227	4497	12.207249590941	14
227	4529	12.208151590941	160
228	968	8.834911213205	0.000496
228	1595	9.204884200275	0.000707449942
228	1734	9.207305650217	0.001091449942
228	2514	10.205306750333	0.000448
228	2664	10.207424431549	0.001090840608
228	2802	10.209785881491	0.001091449942
228	3551	11.205889590941	0.001090840608
228	3689	11.208211040883	0.001091449942
228	4438	12.206029590941	0.001090840608
228	4576	12.208411040883	0.001091449942
229	971	8.834911633509	76
229	1551	9.204625170637	64
229	1658	9.206164620579	14
229	1689	9.207046620579	160
229	2487	10.204709170637	14
229	2517	10.205307170637	64
229	2592	10.206164011245	14
229	2623	10.207166011245	160
229	2726	10.208564851853	14
229	2757	10.209526851853	160
229	3481	11.204609170637	14
229	3511	11.205631170637	160
229	3613	11.207050011245	14
229	3645	11.207952011245	160
229	4368	12.204789170637	14
229	4398	12.205771170637	160
229	4500	12.207250011245	14
229	4532	12.208152011245	160
230	971	8.834911633509	76
230	2517	10.205307170637	64
230	2592	10.206164011245	14
230	2623	10.207166011245	160
230	2726	10.208564851853	14
230	3511	11.205631170637	160
230	3613	11.207050011245	14
230	4398	12.205771170637	160
230	4500	12.207250011245	14
231	971	8.834911633509	76
231	2517	10.205307170637	64
232	971	8.834911633509	76
232	2517	10.205307170637	64
232	2592	10.206164011245	14
232	2623	10.207166011245	160
232	2726	10.208564851853	14
232	3511	11.205631170637	160
232	3613	11.207050011245	14
232	4398	12.205771170637	160
232	4500	12.207250011245	14
233	971	8.834911633509	48
233	2517	10.205307170637	36
233	2623	10.207166011245	132
233	3511	11.205631170637	132
233	4398	12.205771170637	132
234	981	8.834911749777	76
234	1555	9.204625286905	64
234	1662	9.206164736847	14
234	1693	9.207046736847	160
234	1952	9.777147453454	76
234	2491	10.204709286905	14
234	2527	10.205307286905	64
234	2557	10.205905507537	64
234	2596	10.206164127513	14
234	2631	10.207166127513	160
234	2662	10.207424348145	14
234	2691	10.208306348145	160
234	2730	10.208564968121	14
234	2761	10.209526968121	160
234	3485	11.204609286905	14
234	3519	11.205631286905	160
234	3549	11.205889507537	14
234	3579	11.206791507537	160
234	3617	11.207050127513	14
234	3649	11.207952127513	160
234	4372	12.204789286905	14
234	4406	12.205771286905	160
234	4436	12.206029507537	14
234	4466	12.206991507537	160
234	4504	12.207250127513	14
234	4536	12.208152127513	160
235	981	8.834911749777	76
235	1952	9.777147453454	76
235	2527	10.205307286905	64
236	981	8.834911749777	76
236	1952	9.777147453454	76
236	2527	10.205307286905	64
237	981	8.834911749777	76
237	1952	9.777147453454	76
237	2527	10.205307286905	64
238	981	8.834911749777	48
238	1952	9.777147453454	48
238	2527	10.205307286905	36
239	1525	9.204106750333	28
240	1548	9.204624750333	64
240	1655	9.206164200275	14
240	1686	9.207046200275	160
240	2484	10.204708750333	14
240	2589	10.206163590941	14
240	2620	10.207165590941	160
240	2723	10.208564431549	14
240	2754	10.209526431549	160
240	3478	11.204608750333	14
240	3508	11.205630750333	160
240	3610	11.207049590941	14
240	3642	11.207951590941	160
240	4365	12.204788750333	14
240	4395	12.205770750333	160
240	4497	12.207249590941	14
240	4529	12.208151590941	160
241	1551	9.204625170637	0
241	1551	9.204625170637	0.000258
241	1583	9.204883170637	0
241	1689	9.207046620579	0
241	1689	9.207046620579	0.000258
241	1722	9.207304620579	0
241	2554	10.205905170637	0
241	2554	10.205905170637	0.000258
241	2587	10.206163170637	0
241	2688	10.208306011245	0
241	2688	10.208306011245	0.000258
241	2721	10.208564011245	0
241	2757	10.209526851853	0
241	2757	10.209526851853	0.000258
241	2790	10.209784851853	0
241	3576	11.206791170637	0
241	3576	11.206791170637	0.000258
241	3608	11.207049170637	0
241	3645	11.207952011245	0
241	3645	11.207952011245	0.000258
241	3677	11.208210011245	0
241	4463	12.206991170637	0
241	4463	12.206991170637	0.000258
241	4495	12.207249170637	0
241	4532	12.208152011245	0
241	4532	12.208152011245	0.000258
241	4564	12.208410011245	0
242	1551	9.204625170637	64
242	1658	9.206164620579	14
242	1689	9.207046620579	160
242	2487	10.204709170637	14
242	2757	10.209526851853	160
242	3481	11.204609170637	14
242	3645	11.207952011245	160
242	4368	12.204789170637	14
242	4532	12.208152011245	160
243	1551	9.204625170637	64
243	1658	9.206164620579	14
243	1689	9.207046620579	160
243	2487	10.204709170637	14
243	2757	10.209526851853	160
243	3481	11.204609170637	14
243	3645	11.207952011245	160
243	4368	12.204789170637	14
243	4532	12.208152011245	160
244	1551	9.204625170637	64
244	1658	9.206164620579	14
244	1689	9.207046620579	160
244	2487	10.204709170637	14
244	2757	10.209526851853	160
244	3481	11.204609170637	14
244	3645	11.207952011245	160
244	4368	12.204789170637	14
244	4532	12.208152011245	160
245	1551	9.204625170637	64
245	1658	9.206164620579	14
245	1689	9.207046620579	160
245	2487	10.204709170637	14
245	2757	10.209526851853	160
245	3481	11.204609170637	14
245	3645	11.207952011245	160
245	4368	12.204789170637	14
245	4532	12.208152011245	160
246	1555	9.204625286905	0
246	1555	9.204625286905	0.000258
246	1585	9.204883286905	0
246	1693	9.207046736847	0
246	1693	9.207046736847	0.000258
246	1724	9.207304736847	0
246	2557	10.205905507537	0
246	2557	10.205905507537	0.000258
246	2588	10.206163507537	0
246	2631	10.207166127513	0
246	2631	10.207166127513	0.000258
246	2659	10.207424127513	0
246	2691	10.208306348145	0
246	2691	10.208306348145	0.000258
246	2722	10.208564348145	0
246	2761	10.209526968121	0
246	2761	10.209526968121	0.000258
246	2792	10.209784968121	0
246	3519	11.205631286905	0
246	3519	11.205631286905	0.000258
246	3546	11.205889286905	0
246	3579	11.206791507537	0
246	3579	11.206791507537	0.000258
246	3609	11.207049507537	0
246	3649	11.207952127513	0
246	3649	11.207952127513	0.000258
246	3679	11.208210127513	0
246	4406	12.205771286905	0
246	4406	12.205771286905	0.000258
246	4433	12.206029286905	0
246	4466	12.206991507537	0
246	4466	12.206991507537	0.000258
246	4496	12.207249507537	0
246	4536	12.208152127513	0
246	4536	12.208152127513	0.000258
246	4566	12.208410127513	0
247	1555	9.204625286905	64
247	1662	9.206164736847	14
247	1693	9.207046736847	160
247	2491	10.204709286905	14
247	2557	10.205905507537	64
247	2596	10.206164127513	14
247	2631	10.207166127513	160
247	2662	10.207424348145	14
247	2691	10.208306348145	160
247	2730	10.208564968121	14
247	2761	10.209526968121	160
247	3485	11.204609286905	14
247	3519	11.205631286905	160
247	3549	11.205889507537	14
247	3579	11.206791507537	160
247	3617	11.207050127513	14
247	3649	11.207952127513	160
247	4372	12.204789286905	14
247	4406	12.205771286905	160
247	4436	12.206029507537	14
247	4466	12.206991507537	160
247	4504	12.207250127513	14
247	4536	12.208152127513	160
248	1555	9.204625286905	64
248	1662	9.206164736847	14
248	1693	9.207046736847	160
248	2491	10.204709286905	14
248	2557	10.205905507537	64
248	2596	10.206164127513	14
248	2631	10.207166127513	160
248	2662	10.207424348145	14
248	2691	10.208306348145	160
248	2730	10.208564968121	14
248	2761	10.209526968121	160
248	3485	11.204609286905	14
248	3519	11.205631286905	160
248	3549	11.205889507537	14
248	3579	11.206791507537	160
248	3617	11.207050127513	14
248	3649	11.207952127513	160
248	4372	12.204789286905	14
248	4406	12.205771286905	160
248	4436	12.206029507537	14
248	4466	12.206991507537	160
248	4504	12.207250127513	14
248	4536	12.208152127513	160
249	1555	9.204625286905	64
249	1662	9.206164736847	14
249	1693	9.207046736847	160
249	2491	10.204709286905	14
249	2557	10.205905507537	64
249	2596	10.206164127513	14
249	2631	10.207166127513	160
249	2662	10.207424348145	14
249	2691	10.208306348145	160
249	2730	10.208564968121	14
249	2761	10.209526968121	160
249	3485	11.204609286905	14
249	3519	11.205631286905	160
249	3549	11.205889507537	14
249	3579	11.206791507537	160
249	3617	11.207050127513	14
249	3649	11.207952127513	160
249	4372	12.204789286905	14
249	4406	12.205771286905	160
249	4436	12.206029507537	14
249	4466	12.206991507537	160
249	4504	12.207250127513	14
249	4536	12.208152127513	160
250	1555	9.204625286905	64
250	1662	9.206164736847	14
250	1693	9.207046736847	160
250	2491	10.204709286905	14
250	2557	10.205905507537	64
250	2596	10.206164127513	14
250	2631	10.207166127513	160
250	2662	10.207424348145	14
250	2691	10.208306348145	160
250	2730	10.208564968121	14
250	2761	10.209526968121	160
250	3485	11.204609286905	14
250	3519	11.205631286905	160
250	3549	11.205889507537	14
250	3579	11.206791507537	160
250	3617	11.207050127513	14
250	3649	11.207952127513	160
250	4372	12.204789286905	14
250	4406	12.205771286905	160
250	4436	12.206029507537	14
250	4466	12.206991507537	160
250	4504	12.207250127513	14
250	4536	12.208152127513	160
251	1595	9.204884200275	14
251	1625	9.205906200275	160
251	1734	9.207305650217	14
251	2455	10.204450750333	160
251	2559	10.205905590941	64
251	2664	10.207424431549	14
251	2693	10.208306431549	160
251	2802	10.209785881491	14
251	3449	11.204350750333	160
251	3551	11.205889590941	14
251	3581	11.206791590941	160
251	3689	11.208211040883	14
251	4336	12.204530750333	160
251	4438	12.206029590941	14
251	4468	12.206991590941	160
251	4576	12.208411040883	14
252	1899	9.375872099772	48
253	1899	9.375872099772	76
254	1899	9.375872099772	1
254	1901	9.375872099772	0
255	1899	9.375872099772	7
256	1899	9.375872099772	1
256	1900	9.375872099772	0
257	1901	9.375872099772	76
258	1901	9.375872099772	0
259	1901	9.375872099772	1
259	1914	9.376368099772	0
260	1901	9.375872099772	2000000
261	1901	9.375872099772	76
262	1901	9.375872099772	1
262	1914	9.376368099772	0
263	1902	9.375872099772	1
263	1903	9.375872099772	2
263	1914	9.376368099772	1
263	1915	9.376368099772	0
264	1914	9.376368099772	76
265	1914	9.376368099772	76
266	1914	9.376368099772	76
267	1914	9.376368099772	0.000496
268	1934	9.776651116554	48
268	2521	10.205307170637	36
268	2627	10.207166011245	132
268	3515	11.205631170637	132
268	4402	12.205771170637	132
269	1934	9.776651116554	76
269	2521	10.205307170637	64
269	2627	10.207166011245	160
269	3515	11.205631170637	160
269	4402	12.205771170637	160
270	1934	9.776651116554	1
270	1936	9.776651116554	0
270	2521	10.205307170637	1
270	2541	10.205457170637	0
270	2627	10.207166011245	1
270	2674	10.207474011245	0
270	3515	11.205631170637	1
270	3561	11.205959170637	0
270	4402	12.205771170637	1
270	4449	12.206159170637	0
271	1934	9.776651116554	6
271	2521	10.205307170637	5
271	2627	10.207166011245	0
271	3515	11.205631170637	1
271	4402	12.205771170637	4
272	1934	9.776651116554	1
272	1935	9.776651116554	0
272	2521	10.205307170637	1
272	2540	10.205457170637	0
272	2627	10.207166011245	1
272	2641	10.207176011245	0
272	2657	10.207424011245	1
272	2673	10.207474011245	0
272	3515	11.205631170637	1
272	3529	11.205641170637	0
272	3544	11.205889170637	1
272	3560	11.205959170637	0
272	4402	12.205771170637	1
272	4416	12.205781170637	0
272	4431	12.206029170637	1
272	4448	12.206159170637	0
273	1936	9.776651116554	76
273	2541	10.205457170637	64
273	2674	10.207474011245	160
273	3561	11.205959170637	160
273	4449	12.206159170637	160
274	1936	9.776651116554	0
274	2541	10.205457170637	0.00015
274	2674	10.207474011245	0.000308
274	3561	11.205959170637	0.000328
274	4449	12.206159170637	0.000388
275	1936	9.776651116554	1
275	1949	9.777147116554	0
275	2541	10.205457170637	1
275	2592	10.206164011245	0
275	2674	10.207474011245	1
275	2726	10.208564851853	0
275	3561	11.205959170637	1
275	3613	11.207050011245	0
275	4449	12.206159170637	1
275	4500	12.207250011245	0
276	1936	9.776651116554	2000000
276	2541	10.205457170637	2000000
276	2623	10.207166011245	2000000
276	2674	10.207474011245	2000000
276	3511	11.205631170637	2000000
276	3561	11.205959170637	2000000
276	4398	12.205771170637	2000000
276	4449	12.206159170637	2000000
277	1936	9.776651116554	76
277	2541	10.205457170637	64
277	2640	10.207176011245	14
277	2674	10.207474011245	160
277	3528	11.205641170637	14
277	3561	11.205959170637	160
277	4415	12.205781170637	14
277	4449	12.206159170637	160
278	1936	9.776651116554	1
278	1949	9.777147116554	0
278	2541	10.205457170637	1
278	2592	10.206164011245	0
278	2674	10.207474011245	1
278	2726	10.208564851853	0
278	3561	11.205959170637	1
278	3613	11.207050011245	0
278	4449	12.206159170637	1
278	4500	12.207250011245	0
279	1937	9.776651116554	1
279	1938	9.776651116554	2
279	1949	9.777147116554	1
279	1950	9.777147116554	0
279	2542	10.205457170637	1
279	2543	10.205457170637	2
279	2554	10.205905170637	1
279	2555	10.205905170637	0
279	2641	10.207176011245	1
279	2642	10.207176011245	2
279	2656	10.207424011245	1
279	2657	10.207424011245	0
279	2675	10.207474011245	1
279	2676	10.207474011245	2
279	2688	10.208306011245	1
279	2689	10.208306011245	0
279	3529	11.205641170637	1
279	3530	11.205641170637	2
279	3543	11.205889170637	1
279	3544	11.205889170637	0
279	3562	11.205959170637	1
279	3563	11.205959170637	2
279	3576	11.206791170637	1
279	3577	11.206791170637	0
279	4416	12.205781170637	1
279	4417	12.205781170637	2
279	4430	12.206029170637	1
279	4431	12.206029170637	0
279	4450	12.206159170637	1
279	4451	12.206159170637	2
279	4463	12.206991170637	1
279	4464	12.206991170637	0
280	1949	9.777147116554	76
280	2554	10.205905170637	64
280	2656	10.207424011245	14
280	2688	10.208306011245	160
280	3543	11.205889170637	14
280	3576	11.206791170637	160
280	4430	12.206029170637	14
280	4463	12.206991170637	160
281	1949	9.777147116554	76
282	1949	9.777147116554	76
282	2554	10.205905170637	64
282	2656	10.207424011245	14
282	2688	10.208306011245	160
282	3543	11.205889170637	14
282	3576	11.206791170637	160
282	4430	12.206029170637	14
282	4463	12.206991170637	160
283	1949	9.777147116554	0.000496
283	2592	10.206164011245	0.000706840608
283	2726	10.208564851853	0.001090840608
283	3613	11.207050011245	0.001090840608
283	4500	12.207250011245	0.001090840608
284	2457	10.204450750333	28
285	2514	10.205306750333	64
286	2517	10.205307170637	64
287	2519	10.205307170637	28
288	2527	10.205307286905	64
289	2554	10.205905170637	64
289	2656	10.207424011245	14
289	2688	10.208306011245	160
289	3543	11.205889170637	14
289	3576	11.206791170637	160
289	4430	12.206029170637	14
289	4463	12.206991170637	160
290	2592	10.206164011245	14
290	2623	10.207166011245	160
290	2726	10.208564851853	14
290	3511	11.205631170637	160
290	3613	11.207050011245	14
290	4398	12.205771170637	160
290	4500	12.207250011245	14
